5TCY_5LC_A_402
  RCSB PDB08022003033D
Coordinates from PDB:5TCY:A:402 Model:1 without hydrogens
 27 28  0  0  0  0            999 V2000
   -7.3290    7.6250    1.1590   C 0  0  0  0  0  0  0  0  0  0  0  0
   -8.3900    6.8710    1.6080   C 0  0  0  0  0  0  0  0  0  0  0  0
   -9.5780    7.4620    1.9960   C 0  0  0  0  0  0  0  0  0  0  0  0
   -9.7360    8.8230    1.8920   C 0  0  0  0  0  0  0  0  0  0  0  0
   -8.6610    9.5870    1.3910   C 0  0  0  0  0  0  0  0  0  0  0  0
   -7.4680    8.9890    1.0360   C 0  0  0  0  0  0  0  0  0  0  0  0
  -11.0900    9.4750    2.1900   C 0  0  0  0  0  0  0  0  0  0  0  0
  -12.1480    8.6420    2.2280   N 0  0  0  0  0  0  0  0  0  0  0  0
  -11.1640   10.7040    2.2940   O 0  0  0  0  0  0  0  0  0  0  0  0
  -13.5290    8.9640    2.5410   C 0  0  0  0  0  0  0  0  0  0  0  0
  -14.5910    8.2300    1.7170   C 0  0  0  0  0  0  0  0  0  0  0  0
  -14.5870    6.6950    1.7110   C 0  0  0  0  0  0  0  0  0  0  0  0
  -13.4210    4.0340    0.1710   N 0  0  0  0  0  0  0  0  0  0  0  0
  -12.9790    3.0860   -0.6250   C 0  0  0  0  0  0  0  0  0  0  0  0
  -11.7450    2.3000   -0.1920   C 0  0  0  0  0  0  0  0  0  0  0  0
  -13.5620    2.8020   -1.6660   O 0  0  0  0  0  0  0  0  0  0  0  0
  -10.9730    2.7970    0.8320   C 0  0  0  0  0  0  0  0  0  0  0  0
   -9.8640    2.1210    1.3080   C 0  0  0  0  0  0  0  0  0  0  0  0
   -9.4850    0.9210    0.7320   C 0  0  0  0  0  0  0  0  0  0  0  0
  -10.2520    0.4040   -0.3250   C 0  0  0  0  0  0  0  0  0  0  0  0
  -11.3720    1.0800   -0.8020   C 0  0  0  0  0  0  0  0  0  0  0  0
  -11.2790    3.9890    1.4440   O 0  0  0  0  0  0  0  0  0  0  0  0
   -9.2110    2.6920    2.3770   O 0  0  0  0  0  0  0  0  0  0  0  0
  -14.7510    6.1590    0.3020   C 0  0  0  0  0  0  0  0  0  0  0  0
  -10.5690    6.6480    2.4980   O 0  0  0  0  0  0  0  0  0  0  0  0
  -14.7280    4.6840    0.0300   C 0  0  0  0  0  0  0  0  0  0  0  0
   -8.3100    5.5370    1.7700   O 0  0  0  0  0  0  0  0  0  0  0  0
  1  2  1  0  0  0  0
  1  6  2  0  0  0  0
  2  3  2  0  0  0  0
  2 27  1  0  0  0  0
  3  4  1  0  0  0  0
  3 25  1  0  0  0  0
  4  5  2  0  0  0  0
  4  7  1  0  0  0  0
  5  6  1  0  0  0  0
  7  8  1  0  0  0  0
  7  9  2  0  0  0  0
  8 10  1  0  0  0  0
 10 11  1  0  0  0  0
 11 12  1  0  0  0  0
 12 24  1  0  0  0  0
 13 14  1  0  0  0  0
 13 26  1  0  0  0  0
 14 15  1  0  0  0  0
 14 16  2  0  0  0  0
 15 17  1  0  0  0  0
 15 21  2  0  0  0  0
 17 18  2  0  0  0  0
 17 22  1  0  0  0  0
 18 19  1  0  0  0  0
 18 23  1  0  0  0  0
 19 20  2  0  0  0  0
 20 21  1  0  0  0  0
 24 26  1  0  0  0  0
M  END
>  <InstanceId>
5TCY_5LC_A_402

>  <ChemCompId>
5LC

>  <PdbId>
5TCY

>  <ChainId>
A

>  <ResidueNumber>
402

>  <InsertionCode>


>  <Model>
1

>  <AltIds>


>  <MissingHeavyAtoms>
0

>  <ObservedFormula>
C19 N2 O6

>  <Name>
N,N'-pentane-1,5-diylbis(2,3-dihydroxybenzamide)

>  <SystematicName>
N-[5-[[2,3-bis(oxidanyl)phenyl]carbonylamino]pentyl]-2,3-bis(oxidanyl)benzamide

>  <Synonyms>


>  <Type>
non-polymer

>  <Formula>
C19 H22 N2 O6

>  <MolecularWeight>
374.388

>  <ModifiedDate>
2016-06-24

>  <Parent>


>  <OneLetterCode>


>  <SubcomponentList>


>  <AmbiguousFlag>
N

>  <InChI>
InChI=1S/C19H22N2O6/c22-14-8-4-6-12(16(14)24)18(26)20-10-2-1-3-11-21-19(27)13-7-5-9-15(23)17(13)25/h4-9,22-25H,1-3,10-11H2,(H,20,26)(H,21,27)

>  <InChIKey>
BRWLZTCRFJVZDD-UHFFFAOYSA-N

>  <SMILES>
c1cc(c(c(c1)O)O)C(=O)NCCCCCNC(=O)c2cccc(c2O)O

$$$$
