3SUR_NGT_A_2000
  RCSB PDB08012020303D
Coordinates from PDB:3SUR:A:2000 Model:1 without hydrogens
 14 15  0  0  0  0            999 V2000
   35.4930   19.2090  -15.8810   C 0  0  0  0  0  0  0  0  0  0  0  0
   35.3260   18.2040  -17.0770   C 0  0  0  0  0  0  0  0  0  0  0  0
   34.7650   16.8050  -16.6760   C 0  0  0  0  0  0  0  0  0  0  0  0
   35.4090   16.2750  -15.3900   C 0  0  0  0  0  0  0  0  0  0  0  0
   35.1690   17.3180  -14.2970   C 0  0  0  0  0  0  0  0  0  0  0  0
   35.6720   16.8450  -12.9350   C 0  0  0  0  0  0  0  0  0  0  0  0
   33.5260   19.7400  -17.4330   C 0  0  0  0  0  0  0  0  0  0  0  0
   32.4310   20.4940  -18.1580   C 0  0  0  0  0  0  0  0  0  0  0  0
   34.3340   18.8460  -18.0200   N 0  0  0  0  0  0  0  0  0  0  0  0
   33.8810   19.9880  -15.7680   S 0  0  0  0  0  0  0  0  0  0  0  0
   34.9590   15.8410  -17.7240   O 0  0  0  0  0  0  0  0  0  0  0  0
   34.8200   15.0050  -15.0530   O 0  0  0  0  0  0  0  0  0  0  0  0
   35.8760   18.5660  -14.6580   O 0  0  0  0  0  0  0  0  0  0  0  0
   35.3370   17.8720  -12.0030   O 0  0  0  0  0  0  0  0  0  0  0  0
  1  2  1  0  0  0  0
  1 10  1  0  0  0  0
  1 13  1  0  0  0  0
  2  3  1  0  0  0  0
  2  9  1  0  0  0  0
  3  4  1  0  0  0  0
  3 11  1  0  0  0  0
  4  5  1  0  0  0  0
  4 12  1  0  0  0  0
  5  6  1  0  0  0  0
  5 13  1  0  0  0  0
  6 14  1  0  0  0  0
  7  8  1  0  0  0  0
  7  9  2  0  0  0  0
  7 10  1  0  0  0  0
M  END
>  <InstanceId>
3SUR_NGT_A_2000

>  <ChemCompId>
NGT

>  <PdbId>
3SUR

>  <ChainId>
A

>  <ResidueNumber>
2000

>  <InsertionCode>


>  <Model>
1

>  <AltIds>


>  <MissingHeavyAtoms>
0

>  <ObservedFormula>
C8 N O4 S

>  <Name>
3AR,5R,6S,7R,7AR-5-HYDROXYMETHYL-2-METHYL-5,6,7,7A-TETRAHYDRO-3AH-PYRANO[3,2-D]THIAZOLE-6,7-DIOL

>  <SystematicName>
(3aR,5R,6S,7R,7aR)-5-(hydroxymethyl)-2-methyl-5,6,7,7a-tetrahydro-3aH-pyrano[5,6-d][1,3]thiazole-6,7-diol

>  <Synonyms>


>  <Type>
NON-POLYMER

>  <Formula>
C8 H13 N O4 S

>  <MolecularWeight>
219.258

>  <ModifiedDate>
2011-06-04

>  <Parent>


>  <OneLetterCode>


>  <SubcomponentList>


>  <AmbiguousFlag>
N

>  <InChI>
InChI=1S/C8H13NO4S/c1-3-9-5-7(12)6(11)4(2-10)13-8(5)14-3/h4-8,10-12H,2H2,1H3/t4-,5-,6-,7-,8-/m1/s1

>  <InChIKey>
DRHXTSWSUAJOJZ-FMDGEEDCSA-N

>  <SMILES>
CC1=N[C@@H]2[C@H]([C@@H]([C@H](O[C@@H]2S1)CO)O)O

$$$$
