2JKE_NOJ_A_1727
  RCSB PDB08012017183D
Coordinates from PDB:2JKE:A:1727 Model:1 without hydrogens
 11 11  0  0  0  0            999 V2000
   23.5560   44.2570   68.6290   C 0  0  0  0  0  0  0  0  0  0  0  0
   23.2300   43.2230   69.7220   C 0  0  0  0  0  0  0  0  0  0  0  0
   22.5830   43.8930   70.7790   O 0  0  0  0  0  0  0  0  0  0  0  0
   24.5590   42.6270   70.2120   C 0  0  0  0  0  0  0  0  0  0  0  0
   24.3790   41.8000   71.3270   O 0  0  0  0  0  0  0  0  0  0  0  0
   25.1710   41.8020   69.0820   C 0  0  0  0  0  0  0  0  0  0  0  0
   26.4550   41.3620   69.5490   O 0  0  0  0  0  0  0  0  0  0  0  0
   25.3890   42.7210   67.8600   C 0  0  0  0  0  0  0  0  0  0  0  0
   24.2380   43.5920   67.5090   N 0  0  0  0  0  0  0  0  0  0  0  0
   25.7250   41.9230   66.5930   C 0  0  0  0  0  0  0  0  0  0  0  0
   24.6290   41.0330   66.2910   O 0  0  0  0  0  0  0  0  0  0  0  0
  1  2  1  0  0  0  0
  1  9  1  0  0  0  0
  2  3  1  0  0  0  0
  2  4  1  0  0  0  0
  4  5  1  0  0  0  0
  4  6  1  0  0  0  0
  6  7  1  0  0  0  0
  6  8  1  0  0  0  0
  8  9  1  0  0  0  0
  8 10  1  0  0  0  0
 10 11  1  0  0  0  0
M  END
>  <InstanceId>
2JKE_NOJ_A_1727

>  <ChemCompId>
NOJ

>  <PdbId>
2JKE

>  <ChainId>
A

>  <ResidueNumber>
1727

>  <InsertionCode>


>  <Model>
1

>  <AltIds>


>  <MissingHeavyAtoms>
0

>  <ObservedFormula>
C6 N O4

>  <Name>
1-DEOXYNOJIRIMYCIN

>  <SystematicName>
(2R,3R,4R,5S)-2-(hydroxymethyl)piperidine-3,4,5-triol

>  <Synonyms>
MORANOLINE

>  <Type>
NON-POLYMER

>  <Formula>
C6 H13 N O4

>  <MolecularWeight>
163.172

>  <ModifiedDate>
2011-06-04

>  <Parent>


>  <OneLetterCode>


>  <SubcomponentList>


>  <AmbiguousFlag>
N

>  <InChI>
InChI=1S/C6H13NO4/c8-2-3-5(10)6(11)4(9)1-7-3/h3-11H,1-2H2/t3-,4+,5-,6-/m1/s1

>  <InChIKey>
LXBIFEVIBLOUGU-JGWLITMVSA-N

>  <SMILES>
C1[C@@H]([C@H]([C@@H]([C@H](N1)CO)O)O)O

$$$$
