6GJI_F1E_A_201
  RCSB PDB08022004493D
Coordinates from PDB:6GJI:A:201 Model:1 without hydrogens
 25 26  0  0  0  0            999 V2000
   -2.3130   15.2920   -5.0090   O 0  0  0  0  0  0  0  0  0  0  0  0
   -1.2530   15.2840   -4.4750   C 0  0  0  0  0  0  0  0  0  0  0  0
   -0.5200   14.1890   -4.3400   O 0  0  0  0  0  0  0  0  0  0  0  0
   -0.9860   12.9460   -4.8030   C 0  0  0  0  0  0  0  0  0  0  0  0
    0.0940   11.9410   -4.5290   C 0  0  0  0  0  0  0  0  0  0  0  0
   -0.5640   16.4640   -3.8530   C 0  0  0  0  0  0  0  0  0  0  0  0
   -1.1230   17.7210   -4.2700   N 0  0  0  0  0  0  0  0  0  0  0  0
   -0.9320   18.1870   -5.4800   C 0  0  0  0  0  0  0  0  0  0  0  0
   -0.2920   17.5770   -6.2910   O 0  0  0  0  0  0  0  0  0  0  0  0
   -1.4880   19.3700   -5.7320   N 0  0  0  0  0  0  0  0  0  0  0  0
   -2.0540   20.2140   -4.6980   C 0  0  0  0  0  0  0  0  0  0  0  0
   -0.9600   21.1460   -4.2800   C 0  0  0  0  0  0  0  0  0  0  0  0
    0.4240   21.0900   -4.4900   C 0  0  0  0  0  0  0  0  0  0  0  0
    0.9290   22.1720   -3.9410   N 0  0  0  0  0  0  0  0  0  0  0  0
    2.3190   22.5770   -3.8760   C 0  0  0  0  0  0  0  0  0  0  0  0
   -0.0100   22.9890   -3.3570   N 0  0  0  0  0  0  0  0  0  0  0  0
   -1.1910   22.2980   -3.6000   N 0  0  0  0  0  0  0  0  0  0  0  0
   -1.6120   19.9420   -7.0150   C 0  0  0  0  0  0  0  0  0  0  0  0
   -3.0190   19.9860   -7.4910   C 0  0  0  0  0  0  0  0  0  0  0  0
   -3.5900   21.1800   -7.8690   C 0  0  0  0  0  0  0  0  0  0  0  0
   -4.8850   21.2070   -8.3280   C 0  0  0  0  0  0  0  0  0  0  0  0
   -5.6000   20.0270   -8.4060   C 0  0  0  0  0  0  0  0  0  0  0  0
   -6.8600   20.0470   -8.8600   N 0  0  0  0  0  0  0  0  0  0  0  0
   -5.0210   18.8460   -8.0290   C 0  0  0  0  0  0  0  0  0  0  0  0
   -3.7260   18.8070   -7.5670   C 0  0  0  0  0  0  0  0  0  0  0  0
 23 22  1  0  0  0  0
 22 21  2  0  0  0  0
 22 24  1  0  0  0  0
 21 20  1  0  0  0  0
 24 25  2  0  0  0  0
 20 19  2  0  0  0  0
 25 19  1  0  0  0  0
 19 18  1  0  0  0  0
 18 10  1  0  0  0  0
  9  8  2  0  0  0  0
 10  8  1  0  0  0  0
 10 11  1  0  0  0  0
  8  7  1  0  0  0  0
  1  2  2  0  0  0  0
  4  5  1  0  0  0  0
  4  3  1  0  0  0  0
 11 12  1  0  0  0  0
 13 12  2  0  0  0  0
 13 14  1  0  0  0  0
  2  3  1  0  0  0  0
  2  6  1  0  0  0  0
 12 17  1  0  0  0  0
  7  6  1  0  0  0  0
 14 15  1  0  0  0  0
 14 16  1  0  0  0  0
 17 16  2  0  0  0  0
M  END
>  <InstanceId>
6GJI_F1E_A_201

>  <ChemCompId>
F1E

>  <PdbId>
6GJI

>  <ChainId>
A

>  <ResidueNumber>
201

>  <InsertionCode>


>  <Model>
1

>  <AltIds>


>  <MissingHeavyAtoms>
0

>  <ObservedFormula>
C16 N6 O3

>  <Name>
ethyl 2-[[(4-aminophenyl)methyl-[(1-methyl-1,2,3-triazol-4-yl)methyl]carbamoyl]amino]ethanoate

>  <SystematicName>
ethyl 2-[[(4-aminophenyl)methyl-[(1-methyl-1,2,3-triazol-4-yl)methyl]carbamoyl]amino]ethanoate

>  <Synonyms>


>  <Type>
NON-POLYMER

>  <Formula>
C16 H22 N6 O3

>  <MolecularWeight>
346.384

>  <ModifiedDate>
2018-11-02

>  <Parent>


>  <OneLetterCode>


>  <SubcomponentList>


>  <AmbiguousFlag>
N

>  <InChI>
InChI=1S/C16H22N6O3/c1-3-25-15(23)8-18-16(24)22(11-14-10-21(2)20-19-14)9-12-4-6-13(17)7-5-12/h4-7,10H,3,8-9,11,17H2,1-2H3,(H,18,24)

>  <InChIKey>
GPGRCPHGBRLBEI-UHFFFAOYSA-N

>  <SMILES>
CCOC(=O)CNC(=O)N(Cc1ccc(cc1)N)Cc2cn(nn2)C

$$$$
