6EEO_J6V_A_302
  RCSB PDB08022004303D
Coordinates from PDB:6EEO:A:302 Model:1 without hydrogens
 26 27  0  0  0  0            999 V2000
   -3.9100    8.9360   13.6370   C 0  0  0  0  0  0  0  0  0  0  0  0
   -2.5110   10.7220   14.3050   C 0  0  0  0  0  0  0  0  0  0  0  0
   -1.6840    8.4520   14.3910   C 0  0  0  0  0  0  0  0  0  0  0  0
   -1.4880    9.8160   14.5840   C 0  0  0  0  0  0  0  0  0  0  0  0
   -4.5020    0.7160   13.6640   C 0  0  0  0  0  0  0  0  0  0  0  0
   -4.2560    1.3150   12.4390   C 0  0  0  0  0  0  0  0  0  0  0  0
   -4.3760    2.7180   12.2980   C 0  0  0  0  0  0  0  0  0  0  0  0
   -4.6980    3.4570   13.4470   C 0  0  0  0  0  0  0  0  0  0  0  0
   -4.9630    2.8480   14.6040   C 0  0  0  0  0  0  0  0  0  0  0  0
   -4.8320    1.5300   14.7210   C 0  0  0  0  0  0  0  0  0  0  0  0
   -4.1290    3.3430   11.0680   O 0  0  0  0  0  0  0  0  0  0  0  0
   -5.0260    4.8040   13.8070   N 0  0  0  0  0  0  0  0  0  0  0  0
   -4.5060    6.1110   14.0250   C 0  0  0  0  0  0  0  0  0  0  0  0
   -3.1810    6.5930   13.6880   N 0  0  0  0  0  0  0  0  0  0  0  0
   -5.3440    6.8130   14.4790   O 0  0  0  0  0  0  0  0  0  0  0  0
   -2.9120    8.0080   13.9260   C 0  0  0  0  0  0  0  0  0  0  0  0
   -3.7310   10.2840   13.8370   C 0  0  0  0  0  0  0  0  0  0  0  0
   -0.1410   10.3280   15.1050   C 0  0  0  0  0  0  0  0  0  0  0  0
   -2.3280   12.0600   14.4880   F 0  0  0  0  0  0  0  0  0  0  0  0
   -5.2520    1.0220   16.3790   S 0  0  0  0  0  0  0  0  0  0  0  0
   -4.4420    1.6140   17.4390   O 0  0  0  0  0  0  0  0  0  0  0  0
   -6.6220    1.4160   16.6870   O 0  0  0  0  0  0  0  0  0  0  0  0
   -5.0270   -0.6510   16.3790   N 0  0  0  0  0  0  0  0  0  0  0  0
   -3.9280    0.3770   11.3750   N 0  0  0  0  0  0  0  0  0  0  0  0
   -3.5540   -0.7100   11.6460   O 0  0  0  0  0  0  0  0  0  0  0  0
   -4.1640    0.7080   10.0360   O 0  0  0  0  0  0  0  0  0  0  0  0
 26 24  2  0  0  0  0
 11  7  1  0  0  0  0
 24 25  2  0  0  0  0
 24  6  1  0  0  0  0
  7  6  2  0  0  0  0
  7  8  1  0  0  0  0
  6  5  1  0  0  0  0
  8 12  1  0  0  0  0
  8  9  2  0  0  0  0
  1 17  2  0  0  0  0
  1 16  1  0  0  0  0
  5 10  2  0  0  0  0
 14 16  1  0  0  0  0
 14 13  1  0  0  0  0
 12 13  1  0  0  0  0
 17  2  1  0  0  0  0
 16  3  2  0  0  0  0
 13 15  2  0  0  0  0
  2 19  1  0  0  0  0
  2  4  2  0  0  0  0
  3  4  1  0  0  0  0
  4 18  1  0  0  0  0
  9 10  1  0  0  0  0
 10 20  1  0  0  0  0
 20 23  1  0  0  0  0
 20 22  2  0  0  0  0
 20 21  2  0  0  0  0
M  END
>  <InstanceId>
6EEO_J6V_A_302

>  <ChemCompId>
J6V

>  <PdbId>
6EEO

>  <ChainId>
A

>  <ResidueNumber>
302

>  <InsertionCode>


>  <Model>
1

>  <AltIds>


>  <MissingHeavyAtoms>
0

>  <ObservedFormula>
C14 N4 O6 S F

>  <Name>
3-{[(4-fluoro-3-methylphenyl)carbamoyl]amino}-4-hydroxy-5-nitrobenzene-1-sulfonamide

>  <SystematicName>
1-(4-fluoranyl-3-methyl-phenyl)-3-(3-nitro-2-oxidanyl-5-sulfamoyl-phenyl)urea

>  <Synonyms>


>  <Type>
NON-POLYMER

>  <Formula>
C14 H13 F N4 O6 S

>  <MolecularWeight>
384.34

>  <ModifiedDate>
2018-11-23

>  <Parent>


>  <OneLetterCode>


>  <SubcomponentList>


>  <AmbiguousFlag>
N

>  <InChI>
InChI=1S/C14H13FN4O6S/c1-7-4-8(2-3-10(7)15)17-14(21)18-11-5-9(26(16,24)25)6-12(13(11)20)19(22)23/h2-6,20H,1H3,(H2,16,24,25)(H2,17,18,21)

>  <InChIKey>
NCXBXYIRLDJNEP-UHFFFAOYSA-N

>  <SMILES>
Cc1cc(ccc1F)NC(=O)Nc2cc(cc(c2O)N(=O)=O)S(=O)(=O)N

$$$$
