5VR8_UDX_A_501
  RCSB PDB08022003243D
Coordinates from PDB:5VR8:A:501 Model:1 without hydrogens
 34 36  0  0  0  0            999 V2000
   15.5890   -9.5520   26.4670   C 0  0  0  0  0  0  0  0  0  0  0  0
   14.7670   -9.8130   27.7370   C 0  0  0  0  0  0  0  0  0  0  0  0
   15.1840   -8.9520   28.7890   O 0  0  0  0  0  0  0  0  0  0  0  0
   14.8570  -11.2490   28.2420   C 0  0  0  0  0  0  0  0  0  0  0  0
   13.8410  -11.4100   29.2500   O 0  0  0  0  0  0  0  0  0  0  0  0
   14.6810  -12.2260   27.0740   C 0  0  0  0  0  0  0  0  0  0  0  0
   14.9310  -13.5760   27.4670   O 0  0  0  0  0  0  0  0  0  0  0  0
   15.6270  -11.8620   25.9360   C 0  0  0  0  0  0  0  0  0  0  0  0
   15.2740  -10.5520   25.4820   O 0  0  0  0  0  0  0  0  0  0  0  0
   17.9040   -8.8920   25.5090   P 0  0  0  0  0  0  0  0  0  0  0  0
   18.8520   -7.8150   26.0070   O 0  0  0  0  0  0  0  0  0  0  0  0
   16.9780   -8.2700   24.4980   O 0  0  0  0  0  0  0  0  0  0  0  0
   17.0160   -9.5030   26.7000   O 0  0  0  0  0  0  0  0  0  0  0  0
   18.5970  -10.1860   24.8610   O 0  0  0  0  0  0  0  0  0  0  0  0
   19.8900  -10.2320   23.8880   P 0  0  0  0  0  0  0  0  0  0  0  0
   19.8560   -9.2240   22.7680   O 0  0  0  0  0  0  0  0  0  0  0  0
   20.0150  -11.6520   23.4150   O 0  0  0  0  0  0  0  0  0  0  0  0
   21.1150   -9.9040   24.8840   O 0  0  0  0  0  0  0  0  0  0  0  0
   21.5060  -10.8490   25.8770   C 0  0  0  0  0  0  0  0  0  0  0  0
   23.0320  -10.8360   25.9240   C 0  0  0  0  0  0  0  0  0  0  0  0
   23.5160  -11.6050   27.0260   O 0  0  0  0  0  0  0  0  0  0  0  0
   23.5980  -11.4790   24.6640   C 0  0  0  0  0  0  0  0  0  0  0  0
   24.3830  -10.5020   23.9700   O 0  0  0  0  0  0  0  0  0  0  0  0
   24.4210  -12.6580   25.1570   C 0  0  0  0  0  0  0  0  0  0  0  0
   25.6310  -12.8140   24.4140   O 0  0  0  0  0  0  0  0  0  0  0  0
   24.6940  -12.2900   26.6020   C 0  0  0  0  0  0  0  0  0  0  0  0
   24.9060  -13.4080   27.5100   N 0  0  0  0  0  0  0  0  0  0  0  0
   24.0130  -14.3890   27.6080   C 0  0  0  0  0  0  0  0  0  0  0  0
   26.0470  -13.4200   28.3270   C 0  0  0  0  0  0  0  0  0  0  0  0
   26.8810  -12.4970   28.2310   O 0  0  0  0  0  0  0  0  0  0  0  0
   26.2510  -14.4200   29.1870   N 0  0  0  0  0  0  0  0  0  0  0  0
   25.3790  -15.4230   29.2910   C 0  0  0  0  0  0  0  0  0  0  0  0
   25.5790  -16.3590   30.1050   O 0  0  0  0  0  0  0  0  0  0  0  0
   24.2350  -15.4230   28.5020   C 0  0  0  0  0  0  0  0  0  0  0  0
  1  2  1  0  0  0  0
  1  9  1  0  0  0  0
  1 13  1  0  0  0  0
  2  3  1  0  0  0  0
  2  4  1  0  0  0  0
  4  5  1  0  0  0  0
  4  6  1  0  0  0  0
  6  7  1  0  0  0  0
  6  8  1  0  0  0  0
  8  9  1  0  0  0  0
 10 11  2  0  0  0  0
 10 12  1  0  0  0  0
 10 13  1  0  0  0  0
 10 14  1  0  0  0  0
 14 15  1  0  0  0  0
 15 16  2  0  0  0  0
 15 17  1  0  0  0  0
 15 18  1  0  0  0  0
 18 19  1  0  0  0  0
 19 20  1  0  0  0  0
 20 21  1  0  0  0  0
 20 22  1  0  0  0  0
 21 26  1  0  0  0  0
 22 23  1  0  0  0  0
 22 24  1  0  0  0  0
 24 25  1  0  0  0  0
 24 26  1  0  0  0  0
 26 27  1  0  0  0  0
 27 28  1  0  0  0  0
 27 29  1  0  0  0  0
 28 34  2  0  0  0  0
 29 30  2  0  0  0  0
 29 31  1  0  0  0  0
 31 32  1  0  0  0  0
 32 33  2  0  0  0  0
 32 34  1  0  0  0  0
M  END
>  <InstanceId>
5VR8_UDX_A_501

>  <ChemCompId>
UDX

>  <PdbId>
5VR8

>  <ChainId>
A

>  <ResidueNumber>
501

>  <InsertionCode>


>  <Model>
1

>  <AltIds>


>  <MissingHeavyAtoms>
0

>  <ObservedFormula>
C14 N2 O16 P2

>  <Name>
URIDINE-5'-DIPHOSPHATE-XYLOPYRANOSE

>  <SystematicName>
[[(2R,3S,4R,5R)-5-(2,4-dioxopyrimidin-1-yl)-3,4-dihydroxy-oxolan-2-yl]methoxy-hydroxy-phosphoryl] [(2R,3R,4S,5R)-3,4,5-trihydroxyoxan-2-yl] hydrogen phosphate

>  <Synonyms>
UDP-ALPHA-D-XYLOPYRANOSE

>  <Type>
NON-POLYMER

>  <Formula>
C14 H22 N2 O16 P2

>  <MolecularWeight>
536.276

>  <ModifiedDate>
2011-06-04

>  <Parent>


>  <OneLetterCode>


>  <SubcomponentList>


>  <AmbiguousFlag>
N

>  <InChI>
InChI=1S/C14H22N2O16P2/c17-5-3-28-13(11(22)8(5)19)31-34(26,27)32-33(24,25)29-4-6-9(20)10(21)12(30-6)16-2-1-7(18)15-14(16)23/h1-2,5-6,8-13,17,19-22H,3-4H2,(H,24,25)(H,26,27)(H,15,18,23)/t5-,6-,8+,9-,10-,11-,12-,13-/m1/s1

>  <InChIKey>
DQQDLYVHOTZLOR-OCIMBMBZSA-N

>  <SMILES>
C1[C@H]([C@@H]([C@H]([C@H](O1)O[P@](=O)(O)O[P@](=O)(O)OC[C@@H]2[C@H]([C@H]([C@@H](O2)N3C=CC(=O)NC3=O)O)O)O)O)O

$$$$
