3Q6Z_APR_A_1
  RCSB PDB08012020133D
Coordinates from PDB:3Q6Z:A:1 Model:1 without hydrogens
 36 39  0  0  0  0            999 V2000
   18.0150   25.5180   15.6540   N 0  0  0  0  0  0  0  0  0  0  0  0
   17.9270   24.4720   16.4920   C 0  0  0  0  0  0  0  0  0  0  0  0
   17.0890   23.4510   16.2850   N 0  0  0  0  0  0  0  0  0  0  0  0
   16.2890   23.4600   15.2090   C 0  0  0  0  0  0  0  0  0  0  0  0
   16.3360   24.5230   14.2850   C 0  0  0  0  0  0  0  0  0  0  0  0
   17.2510   25.5890   14.5370   C 0  0  0  0  0  0  0  0  0  0  0  0
   17.4000   26.6520   13.7260   N 0  0  0  0  0  0  0  0  0  0  0  0
   15.4300   24.2200   13.3120   N 0  0  0  0  0  0  0  0  0  0  0  0
   14.8540   23.0470   13.6260   C 0  0  0  0  0  0  0  0  0  0  0  0
   15.3810   22.5840   14.7770   N 0  0  0  0  0  0  0  0  0  0  0  0
   15.0320   21.3330   15.5130   C 0  0  0  0  0  0  0  0  0  0  0  0
   13.6880   20.9140   14.9430   C 0  0  0  0  0  0  0  0  0  0  0  0
   12.6590   21.6580   15.6060   O 0  0  0  0  0  0  0  0  0  0  0  0
   13.6520   19.4450   15.3210   C 0  0  0  0  0  0  0  0  0  0  0  0
   13.2640   19.3480   16.6760   O 0  0  0  0  0  0  0  0  0  0  0  0
   15.9240   20.2410   15.2660   O 0  0  0  0  0  0  0  0  0  0  0  0
   15.1200   19.0080   15.1460   C 0  0  0  0  0  0  0  0  0  0  0  0
   15.4020   18.3070   13.7740   C 0  0  0  0  0  0  0  0  0  0  0  0
   14.7700   19.0290   12.6870   O 0  0  0  0  0  0  0  0  0  0  0  0
   15.4290   19.2230   11.2560   P 0  0  0  0  0  0  0  0  0  0  0  0
   16.6810   19.9870   11.4840   O 0  0  0  0  0  0  0  0  0  0  0  0
   14.4720   19.8250   10.2880   O 0  0  0  0  0  0  0  0  0  0  0  0
   15.8680   17.5870   10.8840   O 0  0  0  0  0  0  0  0  0  0  0  0
   15.1420   16.4690    9.8170   P 0  0  0  0  0  0  0  0  0  0  0  0
   13.7660   16.7060   10.3370   O 0  0  0  0  0  0  0  0  0  0  0  0
   16.0510   15.3940   10.3620   O 0  0  0  0  0  0  0  0  0  0  0  0
   15.6730   17.3990    8.6690   O 0  0  0  0  0  0  0  0  0  0  0  0
   16.8150   17.0280    7.9370   C 0  0  0  0  0  0  0  0  0  0  0  0
   16.6290   19.2720    7.3780   O 0  0  0  0  0  0  0  0  0  0  0  0
   17.1240   20.7250    5.7280   O 0  0  0  0  0  0  0  0  0  0  0  0
   17.6910   20.1980    6.9610   C 0  0  0  0  0  0  0  0  0  0  0  0
   19.9810   19.8330    5.9950   O 0  0  0  0  0  0  0  0  0  0  0  0
   18.9150   19.2790    6.8060   C 0  0  0  0  0  0  0  0  0  0  0  0
   17.9780   18.5080    4.6610   O 0  0  0  0  0  0  0  0  0  0  0  0
   18.2350   18.1310    6.0500   C 0  0  0  0  0  0  0  0  0  0  0  0
   16.8990   17.9980    6.7850   C 0  0  0  0  0  0  0  0  0  0  0  0
  1  2  1  0  0  0  0
  1  6  2  0  0  0  0
  2  3  2  0  0  0  0
  3  4  1  0  0  0  0
  4  5  2  0  0  0  0
  4 10  1  0  0  0  0
  5  6  1  0  0  0  0
  5  8  1  0  0  0  0
  6  7  1  0  0  0  0
  8  9  2  0  0  0  0
  9 10  1  0  0  0  0
 10 11  1  0  0  0  0
 11 12  1  0  0  0  0
 11 16  1  0  0  0  0
 12 13  1  0  0  0  0
 12 14  1  0  0  0  0
 14 15  1  0  0  0  0
 14 17  1  0  0  0  0
 16 17  1  0  0  0  0
 17 18  1  0  0  0  0
 18 19  1  0  0  0  0
 19 20  1  0  0  0  0
 20 21  2  0  0  0  0
 20 22  1  0  0  0  0
 20 23  1  0  0  0  0
 23 24  1  0  0  0  0
 24 25  2  0  0  0  0
 24 26  1  0  0  0  0
 24 27  1  0  0  0  0
 27 28  1  0  0  0  0
 28 36  1  0  0  0  0
 29 31  1  0  0  0  0
 29 36  1  0  0  0  0
 30 31  1  0  0  0  0
 31 33  1  0  0  0  0
 32 33  1  0  0  0  0
 33 35  1  0  0  0  0
 34 35  1  0  0  0  0
 35 36  1  0  0  0  0
M  END
>  <InstanceId>
3Q6Z_APR_A_1

>  <ChemCompId>
APR

>  <PdbId>
3Q6Z

>  <ChainId>
A

>  <ResidueNumber>
1

>  <InsertionCode>


>  <Model>
1

>  <AltIds>


>  <MissingHeavyAtoms>
0

>  <ObservedFormula>
C15 N5 O14 P2

>  <Name>
ADENOSINE-5-DIPHOSPHORIBOSE

>  <SystematicName>
[(2R,3S,4R,5R)-5-(6-aminopurin-9-yl)-3,4-dihydroxy-oxolan-2-yl]methyl [hydroxy-[[(2R,3S,4R,5R)-3,4,5-trihydroxyoxolan-2-yl]methoxy]phosphoryl] hydrogen phosphate

>  <Synonyms>


>  <Type>
NON-POLYMER

>  <Formula>
C15 H23 N5 O14 P2

>  <MolecularWeight>
559.316

>  <ModifiedDate>
2011-06-04

>  <Parent>


>  <OneLetterCode>


>  <SubcomponentList>


>  <AmbiguousFlag>
N

>  <InChI>
InChI=1S/C15H23N5O14P2/c16-12-7-13(18-3-17-12)20(4-19-7)14-10(23)8(21)5(32-14)1-30-35(26,27)34-36(28,29)31-2-6-9(22)11(24)15(25)33-6/h3-6,8-11,14-15,21-25H,1-2H2,(H,26,27)(H,28,29)(H2,16,17,18)/t5-,6-,8-,9-,10-,11-,14-,15-/m1/s1

>  <InChIKey>
SRNWOUGRCWSEMX-KEOHHSTQSA-N

>  <SMILES>
c1nc(c2c(n1)n(cn2)[C@H]3[C@@H]([C@@H]([C@H](O3)CO[P@](=O)(O)O[P@](=O)(O)OC[C@@H]4[C@H]([C@H]([C@@H](O4)O)O)O)O)O)N

$$$$
