2I4W_KGQ_B_300
  RCSB PDB08012017113D
Coordinates from PDB:2I4W:B:300 Model:1 without hydrogens
 49 52  0  0  0  0            999 V2000
   13.5400   22.0940   17.9760   N 0  0  0  0  0  0  0  0  0  0  0  0
   11.9370   17.9440   18.4890   C 0  0  0  0  0  0  0  0  0  0  0  0
   12.1090   19.1130   12.6550   O 0  0  0  0  0  0  0  0  0  0  0  0
   14.5510   22.9180   17.3510   C 0  0  0  0  0  0  0  0  0  0  0  0
   13.8900   23.4620   16.0180   C 0  0  0  0  0  0  0  0  0  0  0  0
   13.4240   22.3280   15.1360   C 0  0  0  0  0  0  0  0  0  0  0  0
   14.3200   21.6190   14.3290   C 0  0  0  0  0  0  0  0  0  0  0  0
   13.8990   20.5570   13.5070   C 0  0  0  0  0  0  0  0  0  0  0  0
   12.5280   20.1630   13.4670   C 0  0  0  0  0  0  0  0  0  0  0  0
   11.9180   17.8280   13.2720   C 0  0  0  0  0  0  0  0  0  0  0  0
   11.4020   16.6160   12.0950   P 0  0  0  0  0  0  0  0  0  0  0  0
   12.5330   15.5270   11.9960   O 0  0  0  0  0  0  0  0  0  0  0  0
   13.8020   16.1400   11.7590   C 0  0  0  0  0  0  0  0  0  0  0  0
   14.9000   15.0580   11.6560   C 0  0  0  0  0  0  0  0  0  0  0  0
   10.2080   15.8110   12.7000   O 0  0  0  0  0  0  0  0  0  0  0  0
   10.8120   17.1080   10.8230   O 0  0  0  0  0  0  0  0  0  0  0  0
   10.2550   16.0390   10.0480   C 0  0  0  0  0  0  0  0  0  0  0  0
    9.5640   16.6250    8.7980   C 0  0  0  0  0  0  0  0  0  0  0  0
   11.6130   20.8840   14.2860   C 0  0  0  0  0  0  0  0  0  0  0  0
   12.0690   21.9440   15.0970   C 0  0  0  0  0  0  0  0  0  0  0  0
   14.9970   24.0710   18.2830   C 0  0  0  0  0  0  0  0  0  0  0  0
   13.9040   24.9200   18.6040   O 0  0  0  0  0  0  0  0  0  0  0  0
   16.1220   24.9090   17.6430   C 0  0  0  0  0  0  0  0  0  0  0  0
   17.3970   24.1830   17.6460   N 0  0  0  0  0  0  0  0  0  0  0  0
   18.3040   25.0060   18.4720   C 0  0  0  0  0  0  0  0  0  0  0  0
   18.4310   24.6260   19.9720   C 0  0  0  0  0  0  0  0  0  0  0  0
   19.8470   24.7710   20.5550   C 0  0  0  0  0  0  0  0  0  0  0  0
   17.8490   23.2470   20.3040   C 0  0  0  0  0  0  0  0  0  0  0  0
   17.9450   24.1860   16.0680   S 0  0  0  0  0  0  0  0  0  0  0  0
   18.8290   22.9500   15.8410   O 0  0  0  0  0  0  0  0  0  0  0  0
   16.7720   24.0010   15.0850   O 0  0  0  0  0  0  0  0  0  0  0  0
   18.8580   25.6100   15.6160   C 0  0  0  0  0  0  0  0  0  0  0  0
   20.2020   25.7460   15.8180   C 0  0  0  0  0  0  0  0  0  0  0  0
   20.9390   26.8780   15.4660   C 0  0  0  0  0  0  0  0  0  0  0  0
   20.3340   27.9020   14.9010   C 0  0  0  0  0  0  0  0  0  0  0  0
   21.1560   29.1910   14.5000   O 0  0  0  0  0  0  0  0  0  0  0  0
   22.2700   29.2850   15.1070   C 0  0  0  0  0  0  0  0  0  0  0  0
   19.0440   27.8590   14.6660   C 0  0  0  0  0  0  0  0  0  0  0  0
   18.3110   26.7130   15.0240   C 0  0  0  0  0  0  0  0  0  0  0  0
   13.9150   20.7900   18.3160   C 0  0  0  0  0  0  0  0  0  0  0  0
   15.0200   20.2890   18.1250   O 0  0  0  0  0  0  0  0  0  0  0  0
   12.8520   20.1890   18.8680   O 0  0  0  0  0  0  0  0  0  0  0  0
   12.9480   18.8260   19.2860   C 0  0  0  0  0  0  0  0  0  0  0  0
   12.3310   18.6890   20.6890   C 0  0  0  0  0  0  0  0  0  0  0  0
   10.9350   18.8900   20.5200   O 0  0  0  0  0  0  0  0  0  0  0  0
   10.6630   18.0690   19.3880   C 0  0  0  0  0  0  0  0  0  0  0  0
    9.5670   18.6060   18.6220   O 0  0  0  0  0  0  0  0  0  0  0  0
   10.1970   19.3400   17.5770   C 0  0  0  0  0  0  0  0  0  0  0  0
   11.3800   18.4670   17.1290   C 0  0  0  0  0  0  0  0  0  0  0  0
  1  4  1  0  0  0  0
  1 40  1  0  0  0  0
  2 49  1  0  0  0  0
  2 43  1  0  0  0  0
  2 46  1  0  0  0  0
  3 10  1  0  0  0  0
  3  9  1  0  0  0  0
  4  5  1  0  0  0  0
  4 21  1  0  0  0  0
  5  6  1  0  0  0  0
  6  7  2  0  0  0  0
  6 20  1  0  0  0  0
  7  8  1  0  0  0  0
  8  9  2  0  0  0  0
  9 19  1  0  0  0  0
 10 11  1  0  0  0  0
 11 16  1  0  0  0  0
 11 12  1  0  0  0  0
 11 15  2  0  0  0  0
 12 13  1  0  0  0  0
 13 14  1  0  0  0  0
 16 17  1  0  0  0  0
 17 18  1  0  0  0  0
 19 20  2  0  0  0  0
 21 23  1  0  0  0  0
 21 22  1  0  0  0  0
 23 24  1  0  0  0  0
 24 29  1  0  0  0  0
 24 25  1  0  0  0  0
 25 26  1  0  0  0  0
 26 28  1  0  0  0  0
 26 27  1  0  0  0  0
 29 31  2  0  0  0  0
 29 32  1  0  0  0  0
 29 30  2  0  0  0  0
 32 39  2  0  0  0  0
 32 33  1  0  0  0  0
 33 34  2  0  0  0  0
 34 35  1  0  0  0  0
 35 36  1  0  0  0  0
 35 38  2  0  0  0  0
 36 37  1  0  0  0  0
 38 39  1  0  0  0  0
 40 41  2  0  0  0  0
 40 42  1  0  0  0  0
 42 43  1  0  0  0  0
 43 44  1  0  0  0  0
 44 45  1  0  0  0  0
 45 46  1  0  0  0  0
 46 47  1  0  0  0  0
 47 48  1  0  0  0  0
 48 49  1  0  0  0  0
M  END
>  <InstanceId>
2I4W_KGQ_B_300

>  <ChemCompId>
KGQ

>  <PdbId>
2I4W

>  <ChainId>
B

>  <ResidueNumber>
300

>  <InsertionCode>


>  <Model>
1

>  <AltIds>


>  <MissingHeavyAtoms>
0

>  <ObservedFormula>
C33 N2 O12 P S

>  <Name>
DIETHYL ({4-[(2S,3R)-2-({[(3R,3AS,6AR)-HEXAHYDROFURO[2,3-B]FURAN-3-YLOXY]CARBONYL}AMINO)-3-HYDROXY-4-{ISOBUTYL[(4-METHOXYPHENYL)SULFONYL]AMINO}BUTYL]PHENOXY}METHYL)PHOSPHONATE

>  <SystematicName>
[(3R,3aS,6aR)-2,3,3a,4,5,6a-hexahydrofuro[3,2-d]furan-3-yl] N-[(2S,3R)-1-[4-(diethoxyphosphorylmethoxy)phenyl]-3-hydroxy-4-[(4-methoxyphenyl)sulfonyl-(2-methylpropyl)amino]butan-2-yl]carbamate

>  <Synonyms>


>  <Type>
NON-POLYMER

>  <Formula>
C33 H49 N2 O12 P S

>  <MolecularWeight>
728.787

>  <ModifiedDate>
2011-06-04

>  <Parent>


>  <OneLetterCode>


>  <SubcomponentList>


>  <AmbiguousFlag>


>  <InChI>
InChI=1S/C33H49N2O12PS/c1-6-45-48(38,46-7-2)22-44-26-10-8-24(9-11-26)18-29(34-33(37)47-31-21-43-32-28(31)16-17-42-32)30(36)20-35(19-23(3)4)49(39,40)27-14-12-25(41-5)13-15-27/h8-15,23,28-32,36H,6-7,16-22H2,1-5H3,(H,34,37)/t28-,29-,30+,31-,32+/m0/s1

>  <InChIKey>
FCLYPCIMVVLLRN-FXSYQQGGSA-N

>  <SMILES>
CCOP(=O)(COc1ccc(cc1)C[C@@H]([C@@H](C[N@](CC(C)C)S(=O)(=O)c2ccc(cc2)OC)O)NC(=O)O[C@H]3CO[C@@H]4[C@H]3CCO4)OCC

$$$$
