4LM0_5NI_A_900
  RCSB PDB08012022243D
Coordinates from PDB:4LM0:A:900 Model:1 without hydrogens
 12 13  0  0  0  0            999 V2000
    5.4120   11.0670   43.2010   C 0  0  0  0  0  0  0  0  0  0  0  0
    4.7790   12.1680   43.7810   C 0  0  0  0  0  0  0  0  0  0  0  0
    4.1180   13.0390   42.9090   C 0  0  0  0  0  0  0  0  0  0  0  0
    4.0920   12.8230   41.5310   C 0  0  0  0  0  0  0  0  0  0  0  0
    4.7260   11.7240   40.9550   C 0  0  0  0  0  0  0  0  0  0  0  0
    5.3920   10.8450   41.8160   C 0  0  0  0  0  0  0  0  0  0  0  0
    3.4150   14.1730   43.1320   N 0  0  0  0  0  0  0  0  0  0  0  0
    2.9650   14.6680   41.9760   N 0  0  0  0  0  0  0  0  0  0  0  0
    3.3600   13.8630   40.9660   C 0  0  0  0  0  0  0  0  0  0  0  0
    6.0180    9.7730   41.2700   N 0  3  0  0  0  0  0  0  0  0  0  0
    7.2170    9.5740   41.4770   O 0  5  0  0  0  0  0  0  0  0  0  0
    5.3960    9.0000   40.5580   O 0  0  0  0  0  0  0  0  0  0  0  0
  1  2  2  0  0  0  0
  1  6  1  0  0  0  0
  2  3  1  0  0  0  0
  3  4  2  0  0  0  0
  3  7  1  0  0  0  0
  4  5  1  0  0  0  0
  4  9  1  0  0  0  0
  5  6  2  0  0  0  0
  6 10  1  0  0  0  0
  7  8  1  0  0  0  0
  8  9  2  0  0  0  0
 10 11  1  0  0  0  0
 10 12  2  0  0  0  0
M  CHG  2  10   1  11  -1
M  END
>  <InstanceId>
4LM0_5NI_A_900

>  <ChemCompId>
5NI

>  <PdbId>
4LM0

>  <ChainId>
A

>  <ResidueNumber>
900

>  <InsertionCode>


>  <Model>
1

>  <AltIds>


>  <MissingHeavyAtoms>
0

>  <ObservedFormula>
C7 N3 O2

>  <Name>
5-NITROINDAZOLE

>  <SystematicName>
5-nitro-1H-indazole

>  <Synonyms>


>  <Type>
NON-POLYMER

>  <Formula>
C7 H5 N3 O2

>  <MolecularWeight>
163.133

>  <ModifiedDate>
2011-06-04

>  <Parent>


>  <OneLetterCode>


>  <SubcomponentList>


>  <AmbiguousFlag>
N

>  <InChI>
InChI=1S/C7H5N3O2/c11-10(12)6-1-2-7-5(3-6)4-8-9-7/h1-4H,(H,8,9)

>  <InChIKey>
WSGURAYTCUVDQL-UHFFFAOYSA-N

>  <SMILES>
c1cc2c(cc1[N+](=O)[O-])cn[nH]2

$$$$
