5MSB_V13_A_303
  RCSB PDB08022002263D
Coordinates from PDB:5MSB:A:303 Model:1 without hydrogens
 20 20  0  0  0  0            999 V2000
   29.5060    5.9510   10.6330   O 0  0  0  0  0  0  0  0  0  0  0  0
   28.1760    6.7820   10.9000   S 0  0  0  0  0  0  0  0  0  0  0  0
   27.9670    7.2570   12.3190   O 0  0  0  0  0  0  0  0  0  0  0  0
   28.2710    8.1360    9.7940   C 0  0  0  0  0  0  0  0  0  0  0  0
   29.6750    8.6630    9.5610   C 0  0  0  0  0  0  0  0  0  0  0  0
   29.9150    9.6980   10.4510   O 0  0  0  0  0  0  0  0  0  0  0  0
   26.7650    5.6550   10.7180   C 0  0  0  0  0  0  0  0  0  0  0  0
   25.7620    5.3210   11.6550   C 0  0  0  0  0  0  0  0  0  0  0  0
   25.6750    5.9250   12.8520   F 0  0  0  0  0  0  0  0  0  0  0  0
   24.7590    4.3800   11.3990   C 0  0  0  0  0  0  0  0  0  0  0  0
   23.8890    4.1240   12.3750   F 0  0  0  0  0  0  0  0  0  0  0  0
   24.7590    3.7420   10.1850   C 0  0  0  0  0  0  0  0  0  0  0  0
   23.6840    2.3210    9.8980   S 0  0  0  0  0  0  0  0  0  0  0  0
   24.6690    1.2410    9.8860   O 0  0  0  0  0  0  0  0  0  0  0  0
   22.6240    2.1160   11.0210   N 0  0  0  0  0  0  0  0  0  0  0  0
   23.0390    2.5760    8.6210   O 0  0  0  0  0  0  0  0  0  0  0  0
   25.7480    4.0320    9.2660   C 0  0  0  0  0  0  0  0  0  0  0  0
   25.7430    3.4290    8.0890   F 0  0  0  0  0  0  0  0  0  0  0  0
   26.6940    5.0220    9.4920   C 0  0  0  0  0  0  0  0  0  0  0  0
   27.5570    5.2510    8.4680   F 0  0  0  0  0  0  0  0  0  0  0  0
  5  4  1  0  0  0  0
  5  6  1  0  0  0  0
  9  8  1  0  0  0  0
  1  2  2  0  0  0  0
  4  2  1  0  0  0  0
  2  7  1  0  0  0  0
  2  3  2  0  0  0  0
 11 10  1  0  0  0  0
  8 10  2  0  0  0  0
  8  7  1  0  0  0  0
 10 12  1  0  0  0  0
  7 19  2  0  0  0  0
 19 20  1  0  0  0  0
 19 17  1  0  0  0  0
 12 17  2  0  0  0  0
 12 13  1  0  0  0  0
 16 13  2  0  0  0  0
 14 13  2  0  0  0  0
 17 18  1  0  0  0  0
 13 15  1  0  0  0  0
M  END
>  <InstanceId>
5MSB_V13_A_303

>  <ChemCompId>
V13

>  <PdbId>
5MSB

>  <ChainId>
A

>  <ResidueNumber>
303

>  <InsertionCode>


>  <Model>
1

>  <AltIds>


>  <MissingHeavyAtoms>
0

>  <ObservedFormula>
C8 N O5 S2 F4

>  <Name>
2,3,5,6-tetrafluoro-4-[(2-hydroxyethyl)sulfonyl]benzenesulfonamide

>  <SystematicName>
2,3,5,6-tetrakis(fluoranyl)-4-(2-hydroxyethylsulfonyl)benzenesulfonamide

>  <Synonyms>


>  <Type>
NON-POLYMER

>  <Formula>
C8 H7 F4 N O5 S2

>  <MolecularWeight>
337.268

>  <ModifiedDate>
2013-04-05

>  <Parent>


>  <OneLetterCode>


>  <SubcomponentList>


>  <AmbiguousFlag>
N

>  <InChI>
InChI=1S/C8H7F4NO5S2/c9-3-5(11)8(20(13,17)18)6(12)4(10)7(3)19(15,16)2-1-14/h14H,1-2H2,(H2,13,17,18)

>  <InChIKey>
WZGGLNWNBUCLIP-UHFFFAOYSA-N

>  <SMILES>
C(CS(=O)(=O)c1c(c(c(c(c1F)F)S(=O)(=O)N)F)F)O

$$$$
