3W07_U5P_A_301
  RCSB PDB08012020513D
Coordinates from PDB:3W07:A:301 Model:1 without hydrogens
 21 22  0  0  0  0            999 V2000
   16.6130   40.2200   35.8650   N 0  0  0  0  0  0  0  0  0  0  0  0
   15.6600   39.4660   36.5320   C 0  0  0  0  0  0  0  0  0  0  0  0
   14.3640   39.8100   36.3480   N 0  0  0  0  0  0  0  0  0  0  0  0
   13.9080   40.8370   35.5420   C 0  0  0  0  0  0  0  0  0  0  0  0
   14.9010   41.5900   34.8970   C 0  0  0  0  0  0  0  0  0  0  0  0
   16.2180   41.2370   34.9620   C 0  0  0  0  0  0  0  0  0  0  0  0
   15.9700   38.5160   37.2280   O 0  0  0  0  0  0  0  0  0  0  0  0
   12.6730   41.0020   35.4750   O 0  0  0  0  0  0  0  0  0  0  0  0
   18.0240   39.8990   35.9710   C 0  0  0  0  0  0  0  0  0  0  0  0
   18.6140   39.9020   37.3700   C 0  0  0  0  0  0  0  0  0  0  0  0
   19.1030   41.1590   37.7370   O 0  0  0  0  0  0  0  0  0  0  0  0
   19.7430   38.8950   37.2210   C 0  0  0  0  0  0  0  0  0  0  0  0
   19.1560   37.8860   36.2720   C 0  0  0  0  0  0  0  0  0  0  0  0
   20.8410   39.5530   36.5940   O 0  0  0  0  0  0  0  0  0  0  0  0
   18.2600   38.6160   35.4180   O 0  0  0  0  0  0  0  0  0  0  0  0
   18.4400   36.7360   36.9580   C 0  0  0  0  0  0  0  0  0  0  0  0
   19.4600   35.9430   37.5150   O 0  0  0  0  0  0  0  0  0  0  0  0
   19.1290   34.6010   38.3520   P 0  0  0  0  0  0  0  0  0  0  0  0
   17.8180   34.8100   39.0860   O 0  0  0  0  0  0  0  0  0  0  0  0
   20.3270   34.4950   39.2570   O 0  0  0  0  0  0  0  0  0  0  0  0
   19.0400   33.4700   37.3670   O 0  0  0  0  0  0  0  0  0  0  0  0
  1  2  1  0  0  0  0
  1  6  1  0  0  0  0
  1  9  1  0  0  0  0
  2  3  1  0  0  0  0
  2  7  2  0  0  0  0
  3  4  1  0  0  0  0
  4  5  1  0  0  0  0
  4  8  2  0  0  0  0
  5  6  2  0  0  0  0
  9 10  1  0  0  0  0
  9 15  1  0  0  0  0
 10 11  1  0  0  0  0
 10 12  1  0  0  0  0
 12 13  1  0  0  0  0
 12 14  1  0  0  0  0
 13 15  1  0  0  0  0
 13 16  1  0  0  0  0
 16 17  1  0  0  0  0
 17 18  1  0  0  0  0
 18 19  2  0  0  0  0
 18 20  1  0  0  0  0
 18 21  1  0  0  0  0
M  END
>  <InstanceId>
3W07_U5P_A_301

>  <ChemCompId>
U5P

>  <PdbId>
3W07

>  <ChainId>
A

>  <ResidueNumber>
301

>  <InsertionCode>


>  <Model>
1

>  <AltIds>


>  <MissingHeavyAtoms>
0

>  <ObservedFormula>
C9 N2 O9 P

>  <Name>
URIDINE-5'-MONOPHOSPHATE

>  <SystematicName>
[(2R,3S,4R,5R)-5-(2,4-dioxopyrimidin-1-yl)-3,4-dihydroxy-oxolan-2-yl]methyl dihydrogen phosphate

>  <Synonyms>


>  <Type>
NON-POLYMER

>  <Formula>
C9 H13 N2 O9 P

>  <MolecularWeight>
324.181

>  <ModifiedDate>
2011-06-04

>  <Parent>


>  <OneLetterCode>


>  <SubcomponentList>


>  <AmbiguousFlag>
N

>  <InChI>
InChI=1S/C9H13N2O9P/c12-5-1-2-11(9(15)10-5)8-7(14)6(13)4(20-8)3-19-21(16,17)18/h1-2,4,6-8,13-14H,3H2,(H,10,12,15)(H2,16,17,18)/t4-,6-,7-,8-/m1/s1

>  <InChIKey>
DJJCXFVJDGTHFX-XVFCMESISA-N

>  <SMILES>
C1=CN(C(=O)NC1=O)[C@H]2[C@@H]([C@@H]([C@H](O2)COP(=O)(O)O)O)O

$$$$
