4Y0A_SKM_A_201
  RCSB PDB08022000243D
Coordinates from PDB:4Y0A:A:201 Model:1 without hydrogens
 12 12  0  0  0  0            999 V2000
    3.0520    9.6830   20.0410   O 0  0  0  0  0  0  0  0  0  0  0  0
    4.1300   10.6260   20.0370   C 0  0  0  0  0  0  0  0  0  0  0  0
    5.2510   10.2410   20.7920   C 0  0  0  0  0  0  0  0  0  0  0  0
    6.2870   11.2570   20.7390   O 0  0  0  0  0  0  0  0  0  0  0  0
    5.9420    8.8870   20.2880   C 0  0  0  0  0  0  0  0  0  0  0  0
    6.0080    8.7230   18.7980   C 0  0  0  0  0  0  0  0  0  0  0  0
    6.7120    7.6110   18.1580   C 0  0  0  0  0  0  0  0  0  0  0  0
    6.8570    6.5550   18.8570   O 0  0  0  0  0  0  0  0  0  0  0  0
    7.0900    7.6870   16.9380   O 0  0  0  0  0  0  0  0  0  0  0  0
    5.3410    9.7610   17.9060   C 0  0  0  0  0  0  0  0  0  0  0  0
    4.5800   10.8410   18.4240   C 0  0  0  0  0  0  0  0  0  0  0  0
    3.3800   11.0020   17.6020   O 0  0  0  0  0  0  0  0  0  0  0  0
  1  2  1  0  0  0  0
  2  3  1  0  0  0  0
  2 11  1  0  0  0  0
  3  4  1  0  0  0  0
  3  5  1  0  0  0  0
  5  6  1  0  0  0  0
  6  7  1  0  0  0  0
  6 10  2  0  0  0  0
  7  8  1  0  0  0  0
  7  9  2  0  0  0  0
 10 11  1  0  0  0  0
 11 12  1  0  0  0  0
M  END
>  <InstanceId>
4Y0A_SKM_A_201

>  <ChemCompId>
SKM

>  <PdbId>
4Y0A

>  <ChainId>
A

>  <ResidueNumber>
201

>  <InsertionCode>


>  <Model>
1

>  <AltIds>


>  <MissingHeavyAtoms>
0

>  <ObservedFormula>
C7 O5

>  <Name>
(3R,4S,5R)-3,4,5-TRIHYDROXYCYCLOHEX-1-ENE-1-CARBOXYLIC ACID

>  <SystematicName>
(3R,4S,5R)-3,4,5-trihydroxycyclohexene-1-carboxylic acid

>  <Synonyms>
SHIKIMATE

>  <Type>
NON-POLYMER

>  <Formula>
C7 H10 O5

>  <MolecularWeight>
174.151

>  <ModifiedDate>
2011-06-04

>  <Parent>


>  <OneLetterCode>


>  <SubcomponentList>


>  <AmbiguousFlag>
N

>  <InChI>
InChI=1S/C7H10O5/c8-4-1-3(7(11)12)2-5(9)6(4)10/h1,4-6,8-10H,2H2,(H,11,12)/t4-,5-,6-/m1/s1

>  <InChIKey>
JXOHGGNKMLTUBP-HSUXUTPPSA-N

>  <SMILES>
C1[C@H]([C@@H]([C@@H](C=C1C(=O)O)O)O)O

$$$$
