2VWC_BC2_A_1215
  RCSB PDB08012018043D
Coordinates from PDB:2VWC:A:1215 Model:1 without hydrogens
 40 41  0  0  0  0            999 V2000
  -26.4460   34.5140   -3.4630   O 0  0  0  0  0  0  0  0  0  0  0  0
  -25.8930   33.6480   -4.1770   C 0  0  0  0  0  0  0  0  0  0  0  0
  -25.3910   32.3660   -3.5240   C 0  0  0  0  0  0  0  0  0  0  0  0
  -24.8060   31.4320   -4.2890   C 0  0  0  0  0  0  0  0  0  0  0  0
  -24.6140   31.6580   -5.7960   C 0  0  0  0  0  0  0  0  0  0  0  0
  -24.0520   30.7790   -6.5010   O 0  0  0  0  0  0  0  0  0  0  0  0
  -25.1020   32.9530   -6.4350   C 0  0  0  0  0  0  0  0  0  0  0  0
  -25.5610   32.1590   -2.1900   N 0  0  0  0  0  0  0  0  0  0  0  0
  -25.0550   32.9260   -1.1950   C 0  0  0  0  0  0  0  0  0  0  0  0
  -25.2220   32.5990   -0.0230   O 0  0  0  0  0  0  0  0  0  0  0  0
  -24.3100   34.1790   -1.4180   C 0  0  0  0  0  0  0  0  0  0  0  0
  -24.8420   35.4350   -0.7710   C 0  0  0  0  0  0  0  0  0  0  0  0
  -23.1680   34.1910   -2.1360   C 0  0  0  0  0  0  0  0  0  0  0  0
  -22.3940   35.4120   -2.4070   C 0  0  0  0  0  0  0  0  0  0  0  0
  -21.0990   35.4660   -2.7310   C 0  0  0  0  0  0  0  0  0  0  0  0
  -20.3170   34.1840   -2.7450   C 0  0  0  0  0  0  0  0  0  0  0  0
  -19.2660   34.1480   -1.6300   C 0  0  0  0  0  0  0  0  0  0  0  0
  -25.6990   33.8940   -5.6720   C 0  0  0  0  0  0  0  0  0  0  0  0
  -26.1810   35.1780   -6.2560   C 0  0  0  0  0  0  0  0  0  0  0  0
  -26.5670   34.9870   -7.6270   O 0  0  0  0  0  0  0  0  0  0  0  0
  -27.9240   34.5370   -7.7490   C 0  0  0  0  0  0  0  0  0  0  0  0
  -25.1260   36.2950   -6.2000   C 0  0  0  0  0  0  0  0  0  0  0  0
  -24.5550   36.6200   -4.8160   C 0  0  0  0  0  0  0  0  0  0  0  0
  -24.0760   36.1920   -7.3110   C 0  0  0  0  0  0  0  0  0  0  0  0
  -22.6890   36.7020   -6.9670   C 0  0  0  0  0  0  0  0  0  0  0  0
  -22.8600   38.1010   -7.2780   O 0  0  0  0  0  0  0  0  0  0  0  0
  -21.8710   39.0060   -6.7710   C 0  0  0  0  0  0  0  0  0  0  0  0
  -21.6100   36.3260   -7.9610   C 0  0  0  0  0  0  0  0  0  0  0  0
  -22.2180   36.1120   -9.2320   O 0  0  0  0  0  0  0  0  0  0  0  0
  -21.7340   37.0370  -10.2280   C 0  0  0  0  0  0  0  0  0  0  0  0
  -20.9250   34.9900   -7.5790   C 0  0  0  0  0  0  0  0  0  0  0  0
  -19.8700   34.5870   -8.6070   C 0  0  0  0  0  0  0  0  0  0  0  0
  -20.2230   34.9200   -6.2300   C 0  0  0  0  0  0  0  0  0  0  0  0
  -20.4220   33.8670   -5.4070   C 0  0  0  0  0  0  0  0  0  0  0  0
  -21.3380   32.7340   -5.7820   C 0  0  0  0  0  0  0  0  0  0  0  0
  -19.7430   33.6930   -4.0860   C 0  0  0  0  0  0  0  0  0  0  0  0
  -18.7630   32.6480   -3.9900   O 0  0  0  0  0  0  0  0  0  0  0  0
  -17.5420   32.6660   -4.7780   C 0  0  0  0  0  0  0  0  0  0  0  0
  -16.8250   31.6780   -4.6510   O 0  0  0  0  0  0  0  0  0  0  0  0
  -17.2090   33.6770   -5.5730   N 0  0  0  0  0  0  0  0  0  0  0  0
  1  2  2  0  0  0  0
  2  3  1  0  0  0  0
  3  4  2  0  0  0  0
  4  5  1  0  0  0  0
  5  6  2  0  0  0  0
  5  7  1  0  0  0  0
  3  8  1  0  0  0  0
  8  9  1  0  0  0  0
  9 10  2  0  0  0  0
  9 11  1  0  0  0  0
 11 12  1  0  0  0  0
 11 13  2  0  0  0  0
 13 14  1  0  0  0  0
 14 15  2  0  0  0  0
 15 16  1  0  0  0  0
 16 17  1  0  0  0  0
  2 18  1  0  0  0  0
  7 18  2  0  0  0  0
 18 19  1  0  0  0  0
 19 20  1  0  0  0  0
 20 21  1  0  0  0  0
 19 22  1  0  0  0  0
 22 23  1  0  0  0  0
 22 24  1  0  0  0  0
 24 25  1  0  0  0  0
 25 26  1  0  0  0  0
 26 27  1  0  0  0  0
 25 28  1  0  0  0  0
 28 29  1  0  0  0  0
 29 30  1  0  0  0  0
 28 31  1  0  0  0  0
 31 32  1  0  0  0  0
 31 33  1  0  0  0  0
 33 34  2  0  0  0  0
 34 35  1  0  0  0  0
 16 36  1  0  0  0  0
 34 36  1  0  0  0  0
 36 37  1  0  0  0  0
 37 38  1  0  0  0  0
 38 39  2  0  0  0  0
 38 40  1  0  0  0  0
M  END
>  <InstanceId>
2VWC_BC2_A_1215

>  <ChemCompId>
BC2

>  <PdbId>
2VWC

>  <ChainId>
A

>  <ResidueNumber>
1215

>  <InsertionCode>


>  <Model>
1

>  <AltIds>


>  <MissingHeavyAtoms>
0

>  <ObservedFormula>
C30 N2 O8

>  <Name>
MACBECIN

>  <SystematicName>
[(8S,9R,10E,12S,13R,14S,16S,17R)-13,14,17-trimethoxy-4,8,10,12,16-pentamethyl-3,20,22-trioxo-2-azabicyclo[16.3.1]docosa-1(21),4,6,10,18-pentaen-9-yl] carbamate

>  <Synonyms>


>  <Type>
non-polymer

>  <Formula>
C30 H42 N2 O8

>  <MolecularWeight>
558.663

>  <ModifiedDate>
2011-06-04

>  <Parent>


>  <OneLetterCode>


>  <SubcomponentList>


>  <AmbiguousFlag>


>  <InChI>
InChI=1S/C30H42N2O8/c1-16-10-9-11-17(2)29(35)32-23-15-21(33)14-22(25(23)34)27(38-7)20(5)13-24(37-6)28(39-8)19(4)12-18(3)26(16)40-30(31)36/h9-12,14-16,19-20,24,26-28H,13H2,1-8H3,(H2,31,36)(H,32,35)/b10-9?,17-11+,18-12+/t16-,19-,20-,24-,26+,27+,28+/m0/s1

>  <InChIKey>
PLTGBUPHJAKFMA-CISVGLRTSA-N

>  <SMILES>
C[C@H]1C[C@@H]([C@@H]([C@H](\C=C(\[C@@H]([C@H](C=CC=C(C(=O)NC2=CC(=O)C=C([C@@H]1OC)C2=O)C)C)OC(=O)N)/C)C)OC)OC

$$$$
