3T70_DU4_A_400
  RCSB PDB08012020323D
Coordinates from PDB:3T70:A:400 Model:1 without hydrogens
 30 33  0  0  0  0            999 V2000
   -6.1200   25.7830   -1.1280   N 0  0  0  0  0  0  0  0  0  0  0  0
   -5.5760   24.6530   -1.7560   C 0  0  0  0  0  0  0  0  0  0  0  0
   -6.2290   23.6150   -1.8780   O 0  0  0  0  0  0  0  0  0  0  0  0
   -4.2700   24.7090   -2.2370   N 0  0  0  0  0  0  0  0  0  0  0  0
   -3.5100   25.8750   -2.1140   C 0  0  0  0  0  0  0  0  0  0  0  0
   -2.3670   25.8690   -2.5650   O 0  0  0  0  0  0  0  0  0  0  0  0
   -4.0420   27.0140   -1.4960   C 0  0  0  0  0  0  0  0  0  0  0  0
   -5.3540   26.9640   -1.0050   C 0  0  0  0  0  0  0  0  0  0  0  0
   -7.5370   25.6960   -0.6470   C 0  0  0  0  0  0  0  0  0  0  0  0
   -8.8280   27.4690   -5.5480   C 0  0  0  0  0  0  0  0  0  0  0  0
   -9.3890   26.8000   -6.8320   C 0  0  0  0  0  0  0  0  0  0  0  0
   -9.4790   27.5730   -7.9960   C 0  0  0  0  0  0  0  0  0  0  0  0
   -8.0200   26.7940    0.2990   C 0  0  0  0  0  0  0  0  0  0  0  0
   -9.9770   27.0220   -9.1760   C 0  0  0  0  0  0  0  0  0  0  0  0
  -10.3820   25.6890   -9.1930   C 0  0  0  0  0  0  0  0  0  0  0  0
  -10.2910   24.9110   -8.0380   C 0  0  0  0  0  0  0  0  0  0  0  0
   -9.7920   25.4670   -6.8580   C 0  0  0  0  0  0  0  0  0  0  0  0
   -7.3180   27.1660   -5.4650   C 0  0  0  0  0  0  0  0  0  0  0  0
   -6.4160   28.1670   -5.8230   C 0  0  0  0  0  0  0  0  0  0  0  0
   -5.0400   27.9450   -5.7610   C 0  0  0  0  0  0  0  0  0  0  0  0
   -4.5550   26.7070   -5.3430   C 0  0  0  0  0  0  0  0  0  0  0  0
   -5.4560   25.7020   -4.9940   C 0  0  0  0  0  0  0  0  0  0  0  0
   -6.8350   25.9220   -5.0480   C 0  0  0  0  0  0  0  0  0  0  0  0
   -8.6940   27.8140   -0.5950   C 0  0  0  0  0  0  0  0  0  0  0  0
   -9.8360   28.3330    0.1050   O 0  0  0  0  0  0  0  0  0  0  0  0
   -9.1570   27.0080   -1.8140   C 0  0  0  0  0  0  0  0  0  0  0  0
   -8.3140   25.8140   -1.8790   O 0  0  0  0  0  0  0  0  0  0  0  0
  -11.0080   27.4910   -4.4110   C 0  0  0  0  0  0  0  0  0  0  0  0
   -9.0360   27.8470   -3.1120   C 0  0  0  0  0  0  0  0  0  0  0  0
   -9.5750   27.1260   -4.2960   N 0  0  0  0  0  0  0  0  0  0  0  0
  1  2  1  0  0  0  0
  1  8  1  0  0  0  0
  1  9  1  0  0  0  0
  2  3  2  0  0  0  0
  2  4  1  0  0  0  0
  4  5  1  0  0  0  0
  5  6  2  0  0  0  0
  5  7  1  0  0  0  0
  7  8  2  0  0  0  0
  9 13  1  0  0  0  0
  9 27  1  0  0  0  0
 10 11  1  0  0  0  0
 10 18  1  0  0  0  0
 10 30  1  0  0  0  0
 11 12  2  0  0  0  0
 11 17  1  0  0  0  0
 12 14  1  0  0  0  0
 13 24  1  0  0  0  0
 14 15  2  0  0  0  0
 15 16  1  0  0  0  0
 16 17  2  0  0  0  0
 18 19  2  0  0  0  0
 18 23  1  0  0  0  0
 19 20  1  0  0  0  0
 20 21  2  0  0  0  0
 21 22  1  0  0  0  0
 22 23  2  0  0  0  0
 24 25  1  0  0  0  0
 24 26  1  0  0  0  0
 26 27  1  0  0  0  0
 26 29  1  0  0  0  0
 28 30  1  0  0  0  0
 29 30  1  0  0  0  0
M  END
>  <InstanceId>
3T70_DU4_A_400

>  <ChemCompId>
DU4

>  <PdbId>
3T70

>  <ChainId>
A

>  <ResidueNumber>
400

>  <InsertionCode>


>  <Model>
1

>  <AltIds>


>  <MissingHeavyAtoms>
0

>  <ObservedFormula>
C23 N3 O4

>  <Name>
2',5'-dideoxy-5'-[(diphenylmethyl)(methyl)amino]uridine

>  <SystematicName>
1-[(2R,4S,5R)-5-[[(diphenylmethyl)-methyl-amino]methyl]-4-oxidanyl-oxolan-2-yl]pyrimidine-2,4-dione

>  <Synonyms>


>  <Type>
NON-POLYMER

>  <Formula>
C23 H25 N3 O4

>  <MolecularWeight>
407.462

>  <ModifiedDate>
2012-08-24

>  <Parent>


>  <OneLetterCode>


>  <SubcomponentList>


>  <AmbiguousFlag>
N

>  <InChI>
InChI=1S/C23H25N3O4/c1-25(22(16-8-4-2-5-9-16)17-10-6-3-7-11-17)15-19-18(27)14-21(30-19)26-13-12-20(28)24-23(26)29/h2-13,18-19,21-22,27H,14-15H2,1H3,(H,24,28,29)/t18-,19+,21+/m0/s1

>  <InChIKey>
GMULPQZINUAVEX-QKNQBKEWSA-N

>  <SMILES>
C[N@](C[C@@H]1[C@H](C[C@@H](O1)N2C=CC(=O)NC2=O)O)C(c3ccccc3)c4ccccc4

$$$$
