2F8G_017_B_401
  RCSB PDB08012016583D
Coordinates from PDB:2F8G:B:401 Model:1 without hydrogens
 38 41  0  0  0  0            999 V2000
   11.3930   17.4080   21.4820   N 0  0  0  0  0  0  0  0  0  0  0  0
   12.4430   18.0070   20.8380   C 0  0  0  0  0  0  0  0  0  0  0  0
   13.3160   18.8320   21.5430   C 0  0  0  0  0  0  0  0  0  0  0  0
   14.3420   19.4980   20.8770   C 0  0  0  0  0  0  0  0  0  0  0  0
   14.5400   19.2250   19.5170   C 0  0  0  0  0  0  0  0  0  0  0  0
   13.6350   18.4830   18.7400   C 0  0  0  0  0  0  0  0  0  0  0  0
   12.5820   17.8360   19.4380   C 0  0  0  0  0  0  0  0  0  0  0  0
   15.7490   20.2650   18.6240   S 0  0  0  0  0  0  0  0  0  0  0  0
   16.7860   20.7570   19.6270   O 0  0  0  0  0  0  0  0  0  0  0  0
   16.2630   19.4170   17.4360   O 0  0  0  0  0  0  0  0  0  0  0  0
   14.9730   21.6620   17.8780   N 0  0  0  0  0  0  0  0  0  0  0  0
   13.9330   21.3620   16.8460   C 0  0  0  0  0  0  0  0  0  0  0  0
   13.9560   22.4270   15.7360   C 0  0  0  0  0  0  0  0  0  0  0  0
   15.2940   22.4620   15.0410   C 0  0  0  0  0  0  0  0  0  0  0  0
   12.8080   22.2160   14.7760   C 0  0  0  0  0  0  0  0  0  0  0  0
   14.7330   22.8000   18.8470   C 0  0  0  0  0  0  0  0  0  0  0  0
   15.6880   23.9740   18.3970   C 0  0  0  0  0  0  0  0  0  0  0  0
   15.1770   25.1080   19.0740   O 0  0  0  0  0  0  0  0  0  0  0  0
   17.2020   23.8050   18.7000   C 0  0  0  0  0  0  0  0  0  0  0  0
   17.9170   24.9210   18.1120   N 0  0  0  0  0  0  0  0  0  0  0  0
   18.6570   24.7060   16.9980   C 0  0  0  0  0  0  0  0  0  0  0  0
   18.8760   23.6180   16.3790   O 0  0  0  0  0  0  0  0  0  0  0  0
   19.1820   25.9290   16.5510   O 0  0  0  0  0  0  0  0  0  0  0  0
   20.2890   25.8870   15.5890   C 0  0  0  0  0  0  0  0  0  0  0  0
   20.1990   27.1730   14.7640   C 0  0  0  0  0  0  0  0  0  0  0  0
   20.7120   28.2250   15.6150   O 0  0  0  0  0  0  0  0  0  0  0  0
   21.6620   27.5630   16.4550   C 0  0  0  0  0  0  0  0  0  0  0  0
   21.5090   27.9890   17.8050   O 0  0  0  0  0  0  0  0  0  0  0  0
   21.2250   26.7880   18.5540   C 0  0  0  0  0  0  0  0  0  0  0  0
   21.8090   25.6060   17.7370   C 0  0  0  0  0  0  0  0  0  0  0  0
   21.6130   26.1030   16.3410   C 0  0  0  0  0  0  0  0  0  0  0  0
   17.5850   23.7370   20.2080   C 0  0  0  0  0  0  0  0  0  0  0  0
   19.8570   24.5860   20.9110   C 0  0  0  0  0  0  0  0  0  0  0  0
   21.2340   24.3730   21.0570   C 0  0  0  0  0  0  0  0  0  0  0  0
   21.8300   23.1710   20.6820   C 0  0  0  0  0  0  0  0  0  0  0  0
   21.0340   22.1420   20.1670   C 0  0  0  0  0  0  0  0  0  0  0  0
   19.6680   22.3300   19.9990   C 0  0  0  0  0  0  0  0  0  0  0  0
   19.0810   23.5350   20.4250   C 0  0  0  0  0  0  0  0  0  0  0  0
  1  2  1  0  0  0  0
  2  3  2  0  0  0  0
  2  7  1  0  0  0  0
  3  4  1  0  0  0  0
  4  5  2  0  0  0  0
  5  6  1  0  0  0  0
  5  8  1  0  0  0  0
  6  7  2  0  0  0  0
  8  9  2  0  0  0  0
  8 10  2  0  0  0  0
  8 11  1  0  0  0  0
 11 12  1  0  0  0  0
 11 16  1  0  0  0  0
 12 13  1  0  0  0  0
 13 14  1  0  0  0  0
 13 15  1  0  0  0  0
 16 17  1  0  0  0  0
 17 18  1  0  0  0  0
 17 19  1  0  0  0  0
 19 20  1  0  0  0  0
 19 32  1  0  0  0  0
 20 21  1  0  0  0  0
 21 22  2  0  0  0  0
 21 23  1  0  0  0  0
 23 24  1  0  0  0  0
 24 25  1  0  0  0  0
 24 31  1  0  0  0  0
 25 26  1  0  0  0  0
 26 27  1  0  0  0  0
 27 28  1  0  0  0  0
 27 31  1  0  0  0  0
 28 29  1  0  0  0  0
 29 30  1  0  0  0  0
 30 31  1  0  0  0  0
 32 38  1  0  0  0  0
 33 34  2  0  0  0  0
 33 38  1  0  0  0  0
 34 35  1  0  0  0  0
 35 36  2  0  0  0  0
 36 37  1  0  0  0  0
 37 38  2  0  0  0  0
M  END
>  <InstanceId>
2F8G_017_B_401

>  <ChemCompId>
017

>  <PdbId>
2F8G

>  <ChainId>
B

>  <ResidueNumber>
401

>  <InsertionCode>


>  <Model>
1

>  <AltIds>


>  <MissingHeavyAtoms>
0

>  <ObservedFormula>
C27 N3 O7 S

>  <Name>
(3R,3AS,6AR)-HEXAHYDROFURO[2,3-B]FURAN-3-YL(1S,2R)-3-[[(4-AMINOPHENYL)SULFONYL](ISOBUTYL)AMINO]-1-BENZYL-2-HYDROXYPROPYLCARBAMATE

>  <SystematicName>
[(3R,3aS,6aR)-2,3,3a,4,5,6a-hexahydrofuro[2,3-b]furan-3-yl] N-[(2S,3R)-4-[(4-aminophenyl)sulfonyl-(2-methylpropyl)amino]-3-hydroxy-1-phenyl-butan-2-yl]carbamate

>  <Synonyms>
Darunavir; TMC114; UIC-94017

>  <Type>
NON-POLYMER

>  <Formula>
C27 H37 N3 O7 S

>  <MolecularWeight>
547.664

>  <ModifiedDate>
2020-05-22

>  <Parent>


>  <OneLetterCode>


>  <SubcomponentList>


>  <AmbiguousFlag>
N

>  <InChI>
InChI=1S/C27H37N3O7S/c1-18(2)15-30(38(33,34)21-10-8-20(28)9-11-21)16-24(31)23(14-19-6-4-3-5-7-19)29-27(32)37-25-17-36-26-22(25)12-13-35-26/h3-11,18,22-26,31H,12-17,28H2,1-2H3,(H,29,32)/t22-,23-,24+,25-,26+/m0/s1

>  <InChIKey>
CJBJHOAVZSMMDJ-HEXNFIEUSA-N

>  <SMILES>
CC(C)C[N@@](C[C@H]([C@H](Cc1ccccc1)NC(=O)O[C@H]2CO[C@@H]3[C@H]2CCO3)O)S(=O)(=O)c4ccc(cc4)N

$$$$
