5TUZ_7L6_A_3006
  RCSB PDB08022003073D
Coordinates from PDB:5TUZ:A:3006 Model:1 without hydrogens
 28 31  0  0  0  0            999 V2000
  -21.0520  -14.6760    3.0700   C 0  0  0  0  0  0  0  0  0  0  0  0
  -21.2470  -13.4470    2.4440   C 0  0  0  0  0  0  0  0  0  0  0  0
  -22.0080  -12.4760    3.0950   C 0  0  0  0  0  0  0  0  0  0  0  0
  -25.0170  -13.6660    7.1050   C 0  0  0  0  0  0  0  0  0  0  0  0
  -22.5400  -12.7520    4.2990   N 0  0  0  0  0  0  0  0  0  0  0  0
  -24.2400  -15.8870    7.0900   C 0  0  0  0  0  0  0  0  0  0  0  0
  -21.6070  -14.9080    4.2790   N 0  0  0  0  0  0  0  0  0  0  0  0
  -22.8070  -15.4700    6.7860   C 0  0  0  0  0  0  0  0  0  0  0  0
  -22.9240  -14.1770    6.1330   N 0  0  0  0  0  0  0  0  0  0  0  0
  -22.3430  -13.9510    4.8850   C 0  0  0  0  0  0  0  0  0  0  0  0
  -20.2980  -15.6720    2.4460   C 0  0  0  0  0  0  0  0  0  0  0  0
  -19.7400  -15.4240    1.1940   C 0  0  0  0  0  0  0  0  0  0  0  0
  -18.9790  -16.3790    0.5720   O 0  0  0  0  0  0  0  0  0  0  0  0
  -18.8390  -17.6570    1.1940   C 0  0  0  0  0  0  0  0  0  0  0  0
  -19.9320  -14.2080    0.5690   C 0  0  0  0  0  0  0  0  0  0  0  0
  -19.3540  -14.0000   -0.6580   O 0  0  0  0  0  0  0  0  0  0  0  0
  -19.8290  -12.9520   -1.4990   C 0  0  0  0  0  0  0  0  0  0  0  0
  -20.6750  -13.2020    1.1960   C 0  0  0  0  0  0  0  0  0  0  0  0
  -22.2300  -11.2610    2.5560   N 0  0  0  0  0  0  0  0  0  0  0  0
  -22.8960  -10.2390    3.3510   C 0  0  0  0  0  0  0  0  0  0  0  0
  -24.3170  -10.0250    2.8400   C 0  0  0  0  0  0  0  0  0  0  0  0
  -22.1160   -8.9330    3.2820   C 0  0  0  0  0  0  0  0  0  0  0  0
  -22.8870   -7.7800    3.9210   C 0  0  0  0  0  0  0  0  0  0  0  0
  -24.1860   -7.6350    3.2480   N 0  0  0  0  0  0  0  0  0  0  0  0
  -24.8940   -6.4620    3.7740   C 0  0  0  0  0  0  0  0  0  0  0  0
  -24.9880   -8.8310    3.5150   C 0  0  0  0  0  0  0  0  0  0  0  0
  -23.6500  -13.0860    6.7680   C 0  0  0  0  0  0  0  0  0  0  0  0
  -24.8630  -14.8640    7.8670   O 0  0  0  0  0  0  0  0  0  0  0  0
 17 16  1  0  0  0  0
 16 15  1  0  0  0  0
 15 12  2  0  0  0  0
 15 18  1  0  0  0  0
 13 14  1  0  0  0  0
 13 12  1  0  0  0  0
 12 11  1  0  0  0  0
 18  2  2  0  0  0  0
  2  1  1  0  0  0  0
  2  3  1  0  0  0  0
 11  1  2  0  0  0  0
 19  3  1  0  0  0  0
 19 20  1  0  0  0  0
 21 20  1  0  0  0  0
 21 26  1  0  0  0  0
  1  7  1  0  0  0  0
  3  5  2  0  0  0  0
 24 26  1  0  0  0  0
 24 25  1  0  0  0  0
 24 23  1  0  0  0  0
 22 20  1  0  0  0  0
 22 23  1  0  0  0  0
  7 10  2  0  0  0  0
  5 10  1  0  0  0  0
 10  9  1  0  0  0  0
  9 27  1  0  0  0  0
  9  8  1  0  0  0  0
 27  4  1  0  0  0  0
  8  6  1  0  0  0  0
  6 28  1  0  0  0  0
  4 28  1  0  0  0  0
M  END
>  <InstanceId>
5TUZ_7L6_A_3006

>  <ChemCompId>
7L6

>  <PdbId>
5TUZ

>  <ChainId>
A

>  <ResidueNumber>
3006

>  <InsertionCode>


>  <Model>
1

>  <AltIds>


>  <MissingHeavyAtoms>
0

>  <ObservedFormula>
C20 N5 O3

>  <Name>
6,7-dimethoxy-N-(1-methylpiperidin-4-yl)-2-(morpholin-4-yl)quinazolin-4-amine

>  <SystematicName>
6,7-dimethoxy-~{N}-(1-methylpiperidin-4-yl)-2-morpholin-4-yl-quinazolin-4-amine

>  <Synonyms>


>  <Type>
NON-POLYMER

>  <Formula>
C20 H29 N5 O3

>  <MolecularWeight>
387.476

>  <ModifiedDate>
2017-02-17

>  <Parent>


>  <OneLetterCode>


>  <SubcomponentList>


>  <AmbiguousFlag>
N

>  <InChI>
InChI=1S/C20H29N5O3/c1-24-6-4-14(5-7-24)21-19-15-12-17(26-2)18(27-3)13-16(15)22-20(23-19)25-8-10-28-11-9-25/h12-14H,4-11H2,1-3H3,(H,21,22,23)

>  <InChIKey>
MEVMMQQJOXBSAX-UHFFFAOYSA-N

>  <SMILES>
CN1CCC(CC1)Nc2c3cc(c(cc3nc(n2)N4CCOCC4)OC)OC

$$$$
