4ZJI_4OQ_A_601
  RCSB PDB08022000393D
Coordinates from PDB:4ZJI:A:601 Model:1 without hydrogens
 26 29  0  0  0  0            999 V2000
   13.0360   47.2140   46.8810   C 0  0  0  0  0  0  0  0  0  0  0  0
   11.0250   45.9840   46.0370   C 0  0  0  0  0  0  0  0  0  0  0  0
   10.5110   45.8030   47.3270   C 0  0  0  0  0  0  0  0  0  0  0  0
   10.7390   50.1360   43.4240   C 0  0  0  0  0  0  0  0  0  0  0  0
   11.1680   50.3800   44.7080   C 0  0  0  0  0  0  0  0  0  0  0  0
   11.6340   49.3260   45.4760   C 0  0  0  0  0  0  0  0  0  0  0  0
   11.6780   48.0270   44.9600   C 0  0  0  0  0  0  0  0  0  0  0  0
   12.9000   47.0450   41.2760   C 0  0  0  0  0  0  0  0  0  0  0  0
   14.0830   46.1380   41.5550   C 0  0  0  0  0  0  0  0  0  0  0  0
   15.1060   44.0010   41.0960   C 0  0  0  0  0  0  0  0  0  0  0  0
   12.7040   44.2120   41.2090   C 0  0  0  0  0  0  0  0  0  0  0  0
   11.5070   45.1120   40.9400   C 0  0  0  0  0  0  0  0  0  0  0  0
    9.9980   51.4150   42.5160  Cl 0  0  0  0  0  0  0  0  0  0  0  0
   10.7980   48.8770   42.8690   C 0  0  0  0  0  0  0  0  0  0  0  0
   12.0710   46.9360   45.7990   N 0  0  0  0  0  0  0  0  0  0  0  0
   13.9170   46.0040   47.2680   C 0  0  0  0  0  0  0  0  0  0  0  0
   11.2610   47.8050   43.6330   C 0  0  0  0  0  0  0  0  0  0  0  0
   11.2470   46.4460   43.0290   C 0  0  0  0  0  0  0  0  0  0  0  0
   11.6560   46.3760   41.6800   N 0  0  0  0  0  0  0  0  0  0  0  0
   13.9520   44.8740   40.8320   N 0  0  0  0  0  0  0  0  0  0  0  0
   10.8940   45.3580   43.6200   N 0  0  0  0  0  0  0  0  0  0  0  0
   10.4410   45.2890   44.9550   C 0  0  0  0  0  0  0  0  0  0  0  0
    9.3590   44.4330   45.1920   C 0  0  0  0  0  0  0  0  0  0  0  0
    8.9100   44.2790   46.4810   C 0  0  0  0  0  0  0  0  0  0  0  0
    7.9070   43.3900   46.7040   F 0  0  0  0  0  0  0  0  0  0  0  0
    9.4520   44.9410   47.5540   C 0  0  0  0  0  0  0  0  0  0  0  0
 20 10  1  0  0  0  0
 20 11  1  0  0  0  0
 20  9  1  0  0  0  0
 12 11  1  0  0  0  0
 12 19  1  0  0  0  0
  8  9  1  0  0  0  0
  8 19  1  0  0  0  0
 19 18  1  0  0  0  0
 13  4  1  0  0  0  0
 14  4  2  0  0  0  0
 14 17  1  0  0  0  0
 18 21  2  0  0  0  0
 18 17  1  0  0  0  0
  4  5  1  0  0  0  0
 21 22  1  0  0  0  0
 17  7  2  0  0  0  0
  5  6  2  0  0  0  0
 22 23  2  0  0  0  0
 22  2  1  0  0  0  0
  7  6  1  0  0  0  0
  7 15  1  0  0  0  0
 23 24  1  0  0  0  0
 15  2  1  0  0  0  0
 15  1  1  0  0  0  0
  2  3  2  0  0  0  0
 24 25  1  0  0  0  0
 24 26  2  0  0  0  0
  1 16  1  0  0  0  0
  3 26  1  0  0  0  0
M  END
>  <InstanceId>
4ZJI_4OQ_A_601

>  <ChemCompId>
4OQ

>  <PdbId>
4ZJI

>  <ChainId>
A

>  <ResidueNumber>
601

>  <InsertionCode>


>  <Model>
1

>  <AltIds>


>  <MissingHeavyAtoms>
0

>  <ObservedFormula>
C20 N4 F Cl

>  <Name>
2-chloro-5-ethyl-8-fluoro-11-(4-methylpiperazin-1-yl)-dibenzodiazepine

>  <SystematicName>
8-chloranyl-11-ethyl-3-fluoranyl-6-(4-methylpiperazin-1-yl)benzo[b][1,4]benzodiazepine

>  <Synonyms>


>  <Type>
NON-POLYMER

>  <Formula>
C20 H22 Cl F N4

>  <MolecularWeight>
372.867

>  <ModifiedDate>
2015-06-19

>  <Parent>


>  <OneLetterCode>


>  <SubcomponentList>


>  <AmbiguousFlag>
N

>  <InChI>
InChI=1S/C20H22ClFN4/c1-3-26-18-6-4-14(21)12-16(18)20(25-10-8-24(2)9-11-25)23-17-13-15(22)5-7-19(17)26/h4-7,12-13H,3,8-11H2,1-2H3

>  <InChIKey>
NQBRFDSRSGHBBK-UHFFFAOYSA-N

>  <SMILES>
CCN1c2ccc(cc2C(=Nc3c1ccc(c3)F)N4CCN(CC4)C)Cl

$$$$
