1O7O_UDP_A_1371
  RCSB PDB08012015373D
Coordinates from PDB:1O7O:A:1371 Model:1 without hydrogens
 25 26  0  0  0  0            999 V2000
    2.7980   12.2760   43.2600   N 0  0  0  0  0  0  0  0  0  0  0  0
    2.8580   13.2490   42.2550   C 0  0  0  0  0  0  0  0  0  0  0  0
    2.4690   14.5290   42.6230   N 0  0  0  0  0  0  0  0  0  0  0  0
    2.0220   14.9360   43.9060   C 0  0  0  0  0  0  0  0  0  0  0  0
    1.9800   13.8950   44.9040   C 0  0  0  0  0  0  0  0  0  0  0  0
    2.3560   12.6400   44.5610   C 0  0  0  0  0  0  0  0  0  0  0  0
    3.2340   12.9960   41.1040   O 0  0  0  0  0  0  0  0  0  0  0  0
    1.7160   16.1160   44.0590   O 0  0  0  0  0  0  0  0  0  0  0  0
    3.2030   10.8640   42.9290   C 0  0  0  0  0  0  0  0  0  0  0  0
    4.7110   10.6500   42.7340   C 0  0  0  0  0  0  0  0  0  0  0  0
    4.9650    9.6070   41.8060   O 0  0  0  0  0  0  0  0  0  0  0  0
    5.1590   10.3290   44.1570   C 0  0  0  0  0  0  0  0  0  0  0  0
    4.0310    9.4060   44.6430   C 0  0  0  0  0  0  0  0  0  0  0  0
    2.8340    9.9720   44.0030   O 0  0  0  0  0  0  0  0  0  0  0  0
    6.4160    9.6420   44.0790   O 0  0  0  0  0  0  0  0  0  0  0  0
    3.7950    9.4110   46.1830   C 0  0  0  0  0  0  0  0  0  0  0  0
    4.2510   10.6570   46.6870   O 0  0  0  0  0  0  0  0  0  0  0  0
    5.5370   11.0880   47.4820   P 0  0  0  0  0  0  0  0  0  0  0  0
    6.7130   10.5410   46.7570   O 0  0  0  0  0  0  0  0  0  0  0  0
    5.4530   12.5810   47.6600   O 0  0  0  0  0  0  0  0  0  0  0  0
    5.3350   10.2880   48.8260   O 0  0  0  0  0  0  0  0  0  0  0  0
    6.3900   10.0760   50.0050   P 0  0  0  0  0  0  0  0  0  0  0  0
    7.3570    8.9120   49.4600   O 0  0  0  0  0  0  0  0  0  0  0  0
    5.5320    9.6400   51.1320   O 0  0  0  0  0  0  0  0  0  0  0  0
    7.2980   11.2360   50.1610   O 0  0  0  0  0  0  0  0  0  0  0  0
  1  2  1  0  0  0  0
  1  6  1  0  0  0  0
  1  9  1  0  0  0  0
  2  3  1  0  0  0  0
  2  7  2  0  0  0  0
  3  4  1  0  0  0  0
  4  5  1  0  0  0  0
  4  8  2  0  0  0  0
  5  6  2  0  0  0  0
  9 10  1  0  0  0  0
  9 14  1  0  0  0  0
 10 11  1  0  0  0  0
 10 12  1  0  0  0  0
 12 13  1  0  0  0  0
 12 15  1  0  0  0  0
 13 14  1  0  0  0  0
 13 16  1  0  0  0  0
 16 17  1  0  0  0  0
 17 18  1  0  0  0  0
 18 19  2  0  0  0  0
 18 20  1  0  0  0  0
 18 21  1  0  0  0  0
 21 22  1  0  0  0  0
 22 23  2  0  0  0  0
 22 24  1  0  0  0  0
 22 25  1  0  0  0  0
M  END
>  <InstanceId>
1O7O_UDP_A_1371

>  <ChemCompId>
UDP

>  <PdbId>
1O7O

>  <ChainId>
A

>  <ResidueNumber>
1371

>  <InsertionCode>


>  <Model>
1

>  <AltIds>


>  <MissingHeavyAtoms>
0

>  <ObservedFormula>
C9 N2 O12 P2

>  <Name>
URIDINE-5'-DIPHOSPHATE

>  <SystematicName>
[(2R,3S,4R,5R)-5-(2,4-dioxopyrimidin-1-yl)-3,4-dihydroxy-oxolan-2-yl]methyl phosphono hydrogen phosphate

>  <Synonyms>


>  <Type>
RNA LINKING

>  <Formula>
C9 H14 N2 O12 P2

>  <MolecularWeight>
404.161

>  <ModifiedDate>
2011-06-04

>  <Parent>


>  <OneLetterCode>
N

>  <SubcomponentList>


>  <AmbiguousFlag>
N

>  <InChI>
InChI=1S/C9H14N2O12P2/c12-5-1-2-11(9(15)10-5)8-7(14)6(13)4(22-8)3-21-25(19,20)23-24(16,17)18/h1-2,4,6-8,13-14H,3H2,(H,19,20)(H,10,12,15)(H2,16,17,18)/t4-,6-,7-,8-/m1/s1

>  <InChIKey>
XCCTYIAWTASOJW-XVFCMESISA-N

>  <SMILES>
C1=CN(C(=O)NC1=O)[C@H]2[C@@H]([C@@H]([C@H](O2)CO[P@@](=O)(O)OP(=O)(O)O)O)O

$$$$
