3GST_GPR_A_223
  RCSB PDB08012019083D
Coordinates from PDB:3GST:A:223 Model:1 without hydrogens
 35 37  0  0  0  0            999 V2000
   14.5620   14.7450   25.0920   N 0  0  0  0  0  0  0  0  0  0  0  0
   14.1510   15.3770   26.3990   C 0  0  0  0  0  0  0  0  0  0  0  0
   13.1440   16.5080   26.1890   C 0  0  0  0  0  0  0  0  0  0  0  0
   13.1400   17.0330   24.9680   O 0  0  0  0  0  0  0  0  0  0  0  0
   12.4380   16.8980   27.1110   O 0  0  0  0  0  0  0  0  0  0  0  0
   15.3740   16.0750   27.1080   C 0  0  0  0  0  0  0  0  0  0  0  0
   15.7930   15.1850   28.2290   C 0  0  0  0  0  0  0  0  0  0  0  0
   16.7670   15.6900   29.2190   C 0  0  0  0  0  0  0  0  0  0  0  0
   17.9750   15.5180   28.9210   O 0  0  0  0  0  0  0  0  0  0  0  0
   16.2950   16.2790   30.3300   N 0  0  0  0  0  0  0  0  0  0  0  0
   17.2090   16.9690   31.2690   C 0  0  0  0  0  0  0  0  0  0  0  0
   16.9640   16.3990   32.6940   C 0  0  0  0  0  0  0  0  0  0  0  0
   17.5550   16.9260   33.6090   O 0  0  0  0  0  0  0  0  0  0  0  0
   17.0910   18.5080   31.2710   C 0  0  0  0  0  0  0  0  0  0  0  0
   17.3250   19.1560   29.6490   S 0  0  0  0  0  0  0  0  0  0  0  0
   16.2670   15.3090   32.7800   N 0  0  0  0  0  0  0  0  0  0  0  0
   15.8910   14.8170   34.1340   C 0  0  0  0  0  0  0  0  0  0  0  0
   16.6510   13.5810   34.4670   C 0  0  0  0  0  0  0  0  0  0  0  0
   17.5230   13.0370   33.7730   O 0  0  0  0  0  0  0  0  0  0  0  0
   16.4220   12.9510   35.6130   O 0  0  0  0  0  0  0  0  0  0  0  0
   19.0120   19.0640   29.8780   C 0  0  0  0  0  0  0  0  0  0  0  0
   19.4670   20.4270   30.3270   C 0  0  0  0  0  0  0  0  0  0  0  0
   19.6360   20.6660   31.7170   C 0  0  0  0  0  0  0  0  0  0  0  0
   20.0880   21.8980   32.1800   C 0  0  0  0  0  0  0  0  0  0  0  0
   20.3590   22.9100   31.2340   C 0  0  0  0  0  0  0  0  0  0  0  0
   20.2180   22.6990   29.8620   C 0  0  0  0  0  0  0  0  0  0  0  0
   19.7920   21.4440   29.3930   C 0  0  0  0  0  0  0  0  0  0  0  0
   19.5880   21.1600   27.9290   C 0  0  0  0  0  0  0  0  0  0  0  0
   19.5340   22.2300   26.9870   C 0  0  0  0  0  0  0  0  0  0  0  0
   19.3350   21.9120   25.6510   C 0  0  0  0  0  0  0  0  0  0  0  0
   19.1970   20.5950   25.2170   C 0  0  0  0  0  0  0  0  0  0  0  0
   19.3050   19.5510   26.1400   C 0  0  0  0  0  0  0  0  0  0  0  0
   19.5000   19.8500   27.4870   C 0  0  0  0  0  0  0  0  0  0  0  0
   19.5280   18.6830   28.4710   C 0  0  0  0  0  0  0  0  0  0  0  0
   20.9200   18.3460   28.6100   O 0  0  0  0  0  0  0  0  0  0  0  0
  1  2  1  0  0  0  0
  2  3  1  0  0  0  0
  2  6  1  0  0  0  0
  3  4  2  0  0  0  0
  3  5  1  0  0  0  0
  6  7  1  0  0  0  0
  7  8  1  0  0  0  0
  8  9  2  0  0  0  0
  8 10  1  0  0  0  0
 10 11  1  0  0  0  0
 11 12  1  0  0  0  0
 11 14  1  0  0  0  0
 12 13  2  0  0  0  0
 12 16  1  0  0  0  0
 14 15  1  0  0  0  0
 15 21  1  0  0  0  0
 16 17  1  0  0  0  0
 17 18  1  0  0  0  0
 18 19  2  0  0  0  0
 18 20  1  0  0  0  0
 21 22  1  0  0  0  0
 21 34  1  0  0  0  0
 22 23  2  0  0  0  0
 22 27  1  0  0  0  0
 23 24  1  0  0  0  0
 24 25  2  0  0  0  0
 25 26  1  0  0  0  0
 26 27  2  0  0  0  0
 27 28  1  0  0  0  0
 28 29  1  0  0  0  0
 28 33  2  0  0  0  0
 29 30  2  0  0  0  0
 30 31  1  0  0  0  0
 31 32  2  0  0  0  0
 32 33  1  0  0  0  0
 33 34  1  0  0  0  0
 34 35  1  0  0  0  0
M  END
>  <InstanceId>
3GST_GPR_A_223

>  <ChemCompId>
GPR

>  <PdbId>
3GST

>  <ChainId>
A

>  <ResidueNumber>
223

>  <InsertionCode>


>  <Model>
1

>  <AltIds>


>  <MissingHeavyAtoms>
0

>  <ObservedFormula>
C24 N3 O7 S

>  <Name>
(9R,10R)-9-(S-GLUTATHIONYL)-10-HYDROXY-9,10-DIHYDROPHENANTHRENE

>  <SystematicName>
(2S)-2-amino-5-[[(2R)-1-(carboxymethylamino)-3-[[(9R,10R)-10-hydroxy-9,10-dihydrophenanthren-9-yl]sulfanyl]-1-oxo-propan-2-yl]amino]-5-oxo-pentanoic acid

>  <Synonyms>


>  <Type>
NON-POLYMER

>  <Formula>
C24 H27 N3 O7 S

>  <MolecularWeight>
501.552

>  <ModifiedDate>
2011-06-04

>  <Parent>


>  <OneLetterCode>


>  <SubcomponentList>


>  <AmbiguousFlag>
N

>  <InChI>
InChI=1S/C24H27N3O7S/c25-17(24(33)34)9-10-19(28)27-18(23(32)26-11-20(29)30)12-35-22-16-8-4-2-6-14(16)13-5-1-3-7-15(13)21(22)31/h1-8,17-18,21-22,31H,9-12,25H2,(H,26,32)(H,27,28)(H,29,30)(H,33,34)/t17-,18-,21+,22+/m0/s1

>  <InChIKey>
JNNIZILNBMPOAC-MOXQZVSFSA-N

>  <SMILES>
c1ccc2c(c1)-c3ccccc3[C@H]([C@@H]2O)SC[C@@H](C(=O)NCC(=O)O)NC(=O)CC[C@@H](C(=O)O)N

$$$$
