2O4K_DR7_A_301
  RCSB PDB08012017373D
Coordinates from PDB:2O4K:A:301 Model:1 without hydrogens
 51 53  0  0  0  0            999 V2000
   19.9960   24.6420   15.9400   C 0  0  0  0  0  0  0  0  0  0  0  0
   18.6010   24.7680   16.2440   O 0  0  0  0  0  0  0  0  0  0  0  0
   18.0660   23.9900   17.3300   C 0  0  0  0  0  0  0  0  0  0  0  0
   18.8570   23.4040   18.0640   O 0  0  0  0  0  0  0  0  0  0  0  0
   16.7420   23.9590   17.4700   N 0  0  0  0  0  0  0  0  0  0  0  0
   16.0550   23.2110   18.5180   C 0  0  0  0  0  0  0  0  0  0  0  0
   15.6220   24.1410   19.6690   C 0  0  0  0  0  0  0  0  0  0  0  0
   14.8510   25.3620   19.1550   C 0  0  0  0  0  0  0  0  0  0  0  0
   14.7800   23.3760   20.6930   C 0  0  0  0  0  0  0  0  0  0  0  0
   16.8360   24.6950   20.4060   C 0  0  0  0  0  0  0  0  0  0  0  0
   14.9460   22.4340   17.8320   C 0  0  0  0  0  0  0  0  0  0  0  0
   13.8950   22.9880   17.5010   O 0  0  0  0  0  0  0  0  0  0  0  0
   15.2360   21.1330   17.5810   N 0  0  0  0  0  0  0  0  0  0  0  0
   14.3530   20.1860   16.8830   C 0  0  0  0  0  0  0  0  0  0  0  0
   15.0910   19.7310   15.6190   C 0  0  0  0  0  0  0  0  0  0  0  0
   15.5160   20.9260   14.7900   C 0  0  0  0  0  0  0  0  0  0  0  0
   14.5530   21.6110   14.0390   C 0  0  0  0  0  0  0  0  0  0  0  0
   14.9390   22.7120   13.2720   C 0  0  0  0  0  0  0  0  0  0  0  0
   16.2720   23.1330   13.2480   C 0  0  0  0  0  0  0  0  0  0  0  0
   17.2340   22.4490   13.9910   C 0  0  0  0  0  0  0  0  0  0  0  0
   16.8530   21.3450   14.7570   C 0  0  0  0  0  0  0  0  0  0  0  0
   14.1300   18.9750   17.7880   C 0  0  0  0  0  0  0  0  0  0  0  0
   15.3430   18.3350   18.2380   O 0  0  0  0  0  0  0  0  0  0  0  0
   13.4270   19.5100   18.9990   C 0  0  0  0  0  0  0  0  0  0  0  0
   12.0240   19.1580   19.0510   N 0  0  0  0  0  0  0  0  0  0  0  0
   11.2680   18.3190   18.1710   N 0  0  0  0  0  0  0  0  0  0  0  0
   10.5070   18.6270   17.1130   C 0  0  0  0  0  0  0  0  0  0  0  0
   10.3380   19.7450   16.6320   O 0  0  0  0  0  0  0  0  0  0  0  0
    9.7910   17.4260   16.5440   C 0  0  0  0  0  0  0  0  0  0  0  0
    9.8220   17.2830   15.0160   C 0  0  0  0  0  0  0  0  0  0  0  0
   11.2620   17.4200   14.5270   C 0  0  0  0  0  0  0  0  0  0  0  0
    9.3190   15.8950   14.6260   C 0  0  0  0  0  0  0  0  0  0  0  0
    8.9460   18.3060   14.2990   C 0  0  0  0  0  0  0  0  0  0  0  0
    8.4160   17.4600   17.0610   N 0  0  0  0  0  0  0  0  0  0  0  0
    7.8660   16.4210   17.6960   C 0  0  0  0  0  0  0  0  0  0  0  0
    8.4370   15.3410   17.9260   O 0  0  0  0  0  0  0  0  0  0  0  0
    6.5120   16.6080   18.1490   O 0  0  0  0  0  0  0  0  0  0  0  0
    5.9140   15.6250   18.9930   C 0  0  0  0  0  0  0  0  0  0  0  0
   11.4270   19.6170   20.3090   C 0  0  0  0  0  0  0  0  0  0  0  0
    9.9240   19.7340   20.2450   C 0  0  0  0  0  0  0  0  0  0  0  0
    9.3950   20.9700   19.9050   C 0  0  0  0  0  0  0  0  0  0  0  0
    8.0150   21.1300   19.8370   C 0  0  0  0  0  0  0  0  0  0  0  0
    9.0890   18.6560   20.5260   C 0  0  0  0  0  0  0  0  0  0  0  0
    7.7010   18.8210   20.4470   C 0  0  0  0  0  0  0  0  0  0  0  0
    7.1570   20.0630   20.1090   C 0  0  0  0  0  0  0  0  0  0  0  0
    5.6730   20.2450   20.0080   C 0  0  0  0  0  0  0  0  0  0  0  0
    5.1410   21.1270   19.0610   C 0  0  0  0  0  0  0  0  0  0  0  0
    3.7590   21.2810   18.9690   C 0  0  0  0  0  0  0  0  0  0  0  0
    2.9350   20.5490   19.8220   C 0  0  0  0  0  0  0  0  0  0  0  0
    3.5030   19.6770   20.7510   C 0  0  0  0  0  0  0  0  0  0  0  0
    4.8380   19.5490   20.8240   N 0  0  0  0  0  0  0  0  0  0  0  0
  1  2  1  0  0  0  0
  2  3  1  0  0  0  0
  3  4  2  0  0  0  0
  3  5  1  0  0  0  0
  5  6  1  0  0  0  0
  6  7  1  0  0  0  0
  6 11  1  0  0  0  0
  7  8  1  0  0  0  0
  7  9  1  0  0  0  0
  7 10  1  0  0  0  0
 11 12  2  0  0  0  0
 11 13  1  0  0  0  0
 13 14  1  0  0  0  0
 14 15  1  0  0  0  0
 14 22  1  0  0  0  0
 15 16  1  0  0  0  0
 16 17  2  0  0  0  0
 16 21  1  0  0  0  0
 17 18  1  0  0  0  0
 18 19  2  0  0  0  0
 19 20  1  0  0  0  0
 20 21  2  0  0  0  0
 22 23  1  0  0  0  0
 22 24  1  0  0  0  0
 24 25  1  0  0  0  0
 25 26  1  0  0  0  0
 25 39  1  0  0  0  0
 26 27  1  0  0  0  0
 27 28  2  0  0  0  0
 27 29  1  0  0  0  0
 29 30  1  0  0  0  0
 29 34  1  0  0  0  0
 30 31  1  0  0  0  0
 30 32  1  0  0  0  0
 30 33  1  0  0  0  0
 34 35  1  0  0  0  0
 35 36  2  0  0  0  0
 35 37  1  0  0  0  0
 37 38  1  0  0  0  0
 39 40  1  0  0  0  0
 40 41  1  0  0  0  0
 40 43  2  0  0  0  0
 41 42  2  0  0  0  0
 42 45  1  0  0  0  0
 43 44  1  0  0  0  0
 44 45  2  0  0  0  0
 45 46  1  0  0  0  0
 46 47  1  0  0  0  0
 46 51  2  0  0  0  0
 47 48  2  0  0  0  0
 48 49  1  0  0  0  0
 49 50  2  0  0  0  0
 50 51  1  0  0  0  0
M  END
>  <InstanceId>
2O4K_DR7_A_301

>  <ChemCompId>
DR7

>  <PdbId>
2O4K

>  <ChainId>
A

>  <ResidueNumber>
301

>  <InsertionCode>


>  <Model>
1

>  <AltIds>


>  <MissingHeavyAtoms>
0

>  <ObservedFormula>
C38 N6 O7

>  <Name>
(3S,8S,9S,12S)-3,12-BIS(1,1-DIMETHYLETHYL)-8-HYDROXY-4,11-DIOXO-9-(PHENYLMETHYL)-6-[[4-(2-PYRIDINYL)PHENYL]METHYL]-2,5, 6,10,13-PENTAAZATETRADECANEDIOIC ACID DIMETHYL ESTER

>  <SystematicName>
methyl N-[(2S)-1-[[(2S,3S)-3-hydroxy-4-[[[(2S)-2-(methoxycarbonylamino)-3,3-dimethyl-butanoyl]amino]-[(4-pyridin-2-ylphenyl)methyl]amino]-1-phenyl-butan-2-yl]amino]-3,3-dimethyl-1-oxo-butan-2-yl]carbamate

>  <Synonyms>
ATAZANAVIR; METHYL [(1S,4S,5S,10S)-4-BENZYL-1,10-DI-TERT-BUTYL-5-HYDROXY-2,9,12-TRIOXO-7-(4-PYRIDIN-2-YLBENZYL)-13-OXA-3,7,8,11-TETRAAZATET RADEC-1-YL]CARBAMATE

>  <Type>
NON-POLYMER

>  <Formula>
C38 H52 N6 O7

>  <MolecularWeight>
704.855

>  <ModifiedDate>
2020-06-17

>  <Parent>


>  <OneLetterCode>


>  <SubcomponentList>


>  <AmbiguousFlag>
N

>  <InChI>
InChI=1S/C38H52N6O7/c1-37(2,3)31(41-35(48)50-7)33(46)40-29(22-25-14-10-9-11-15-25)30(45)24-44(43-34(47)32(38(4,5)6)42-36(49)51-8)23-26-17-19-27(20-18-26)28-16-12-13-21-39-28/h9-21,29-32,45H,22-24H2,1-8H3,(H,40,46)(H,41,48)(H,42,49)(H,43,47)/t29-,30-,31+,32+/m0/s1

>  <InChIKey>
AXRYRYVKAWYZBR-GASGPIRDSA-N

>  <SMILES>
CC(C)(C)[C@@H](C(=O)N[C@@H](Cc1ccccc1)[C@H](CN(Cc2ccc(cc2)c3ccccn3)NC(=O)[C@H](C(C)(C)C)NC(=O)OC)O)NC(=O)OC

$$$$
