3S54_017_B_201
  RCSB PDB08012020253D
Coordinates from PDB:3S54:B:201 Model:1 without hydrogens
 38 41  0  0  0  0            999 V2000
   21.1120   28.7880   14.2350   N 0  0  0  0  0  0  0  0  0  0  0  0
   20.4600   27.6390   14.5790   C 0  0  0  0  0  0  0  0  0  0  0  0
   19.1300   27.4450   14.1920   C 0  0  0  0  0  0  0  0  0  0  0  0
   18.4500   26.2650   14.5460   C 0  0  0  0  0  0  0  0  0  0  0  0
   19.2130   25.2940   15.2130   C 0  0  0  0  0  0  0  0  0  0  0  0
   20.5200   25.5070   15.6660   C 0  0  0  0  0  0  0  0  0  0  0  0
   21.1930   26.6980   15.3250   C 0  0  0  0  0  0  0  0  0  0  0  0
   18.3560   23.8210   15.8620   S 0  0  0  0  0  0  0  0  0  0  0  0
   17.1620   23.5110   14.8740   O 0  0  0  0  0  0  0  0  0  0  0  0
   19.3970   22.6140   15.9200   O 0  0  0  0  0  0  0  0  0  0  0  0
   17.7290   24.0760   17.5190   N 0  0  0  0  0  0  0  0  0  0  0  0
   18.7290   24.4300   18.5850   C 0  0  0  0  0  0  0  0  0  0  0  0
   18.3710   23.7800   19.9610   C 0  0  0  0  0  0  0  0  0  0  0  0
   18.2810   22.2690   19.7720   C 0  0  0  0  0  0  0  0  0  0  0  0
   19.5510   24.1170   20.8820   C 0  0  0  0  0  0  0  0  0  0  0  0
   16.4540   24.9030   17.5330   C 0  0  0  0  0  0  0  0  0  0  0  0
   15.2710   23.9940   17.9900   C 0  0  0  0  0  0  0  0  0  0  0  0
   14.1340   24.7930   18.3030   O 0  0  0  0  0  0  0  0  0  0  0  0
   14.8880   22.8570   16.9850   C 0  0  0  0  0  0  0  0  0  0  0  0
   14.0050   21.9430   17.6730   N 0  0  0  0  0  0  0  0  0  0  0  0
   14.3540   20.6720   17.9940   C 0  0  0  0  0  0  0  0  0  0  0  0
   15.4180   20.0960   17.5900   O 0  0  0  0  0  0  0  0  0  0  0  0
   13.3840   20.0720   18.8530   O 0  0  0  0  0  0  0  0  0  0  0  0
   13.4480   18.6010   18.9250   C 0  0  0  0  0  0  0  0  0  0  0  0
   12.8730   18.2950   20.3270   C 0  0  0  0  0  0  0  0  0  0  0  0
   11.4280   18.4540   20.2070   O 0  0  0  0  0  0  0  0  0  0  0  0
   11.1240   18.1000   18.8580   C 0  0  0  0  0  0  0  0  0  0  0  0
   10.1650   18.9750   18.2290   O 0  0  0  0  0  0  0  0  0  0  0  0
   10.8810   19.5210   17.1180   C 0  0  0  0  0  0  0  0  0  0  0  0
   11.9500   18.4790   16.7020   C 0  0  0  0  0  0  0  0  0  0  0  0
   12.3460   17.9580   18.0720   C 0  0  0  0  0  0  0  0  0  0  0  0
   14.0810   23.3350   15.7190   C 0  0  0  0  0  0  0  0  0  0  0  0
   12.3610   21.7300   14.7270   C 0  0  0  0  0  0  0  0  0  0  0  0
   11.9790   20.6200   13.9360   C 0  0  0  0  0  0  0  0  0  0  0  0
   13.0060   19.8890   13.2880   C 0  0  0  0  0  0  0  0  0  0  0  0
   14.3400   20.3110   13.3750   C 0  0  0  0  0  0  0  0  0  0  0  0
   14.7080   21.3970   14.2010   C 0  0  0  0  0  0  0  0  0  0  0  0
   13.6870   22.1650   14.7970   C 0  0  0  0  0  0  0  0  0  0  0  0
  1  2  1  0  0  0  0
  2  3  2  0  0  0  0
  2  7  1  0  0  0  0
  3  4  1  0  0  0  0
  4  5  2  0  0  0  0
  5  6  1  0  0  0  0
  5  8  1  0  0  0  0
  6  7  2  0  0  0  0
  8  9  2  0  0  0  0
  8 10  2  0  0  0  0
  8 11  1  0  0  0  0
 11 12  1  0  0  0  0
 11 16  1  0  0  0  0
 12 13  1  0  0  0  0
 13 14  1  0  0  0  0
 13 15  1  0  0  0  0
 16 17  1  0  0  0  0
 17 18  1  0  0  0  0
 17 19  1  0  0  0  0
 19 20  1  0  0  0  0
 19 32  1  0  0  0  0
 20 21  1  0  0  0  0
 21 22  2  0  0  0  0
 21 23  1  0  0  0  0
 23 24  1  0  0  0  0
 24 25  1  0  0  0  0
 24 31  1  0  0  0  0
 25 26  1  0  0  0  0
 26 27  1  0  0  0  0
 27 28  1  0  0  0  0
 27 31  1  0  0  0  0
 28 29  1  0  0  0  0
 29 30  1  0  0  0  0
 30 31  1  0  0  0  0
 32 38  1  0  0  0  0
 33 34  2  0  0  0  0
 33 38  1  0  0  0  0
 34 35  1  0  0  0  0
 35 36  2  0  0  0  0
 36 37  1  0  0  0  0
 37 38  2  0  0  0  0
M  END
>  <InstanceId>
3S54_017_B_201

>  <ChemCompId>
017

>  <PdbId>
3S54

>  <ChainId>
B

>  <ResidueNumber>
201

>  <InsertionCode>


>  <Model>
1

>  <AltIds>


>  <MissingHeavyAtoms>
0

>  <ObservedFormula>
C27 N3 O7 S

>  <Name>
(3R,3AS,6AR)-HEXAHYDROFURO[2,3-B]FURAN-3-YL(1S,2R)-3-[[(4-AMINOPHENYL)SULFONYL](ISOBUTYL)AMINO]-1-BENZYL-2-HYDROXYPROPYLCARBAMATE

>  <SystematicName>
[(3R,3aS,6aR)-2,3,3a,4,5,6a-hexahydrofuro[2,3-b]furan-3-yl] N-[(2S,3R)-4-[(4-aminophenyl)sulfonyl-(2-methylpropyl)amino]-3-hydroxy-1-phenyl-butan-2-yl]carbamate

>  <Synonyms>
Darunavir; TMC114; UIC-94017

>  <Type>
NON-POLYMER

>  <Formula>
C27 H37 N3 O7 S

>  <MolecularWeight>
547.664

>  <ModifiedDate>
2020-05-22

>  <Parent>


>  <OneLetterCode>


>  <SubcomponentList>


>  <AmbiguousFlag>
N

>  <InChI>
InChI=1S/C27H37N3O7S/c1-18(2)15-30(38(33,34)21-10-8-20(28)9-11-21)16-24(31)23(14-19-6-4-3-5-7-19)29-27(32)37-25-17-36-26-22(25)12-13-35-26/h3-11,18,22-26,31H,12-17,28H2,1-2H3,(H,29,32)/t22-,23-,24+,25-,26+/m0/s1

>  <InChIKey>
CJBJHOAVZSMMDJ-HEXNFIEUSA-N

>  <SMILES>
CC(C)C[N@@](C[C@H]([C@H](Cc1ccccc1)NC(=O)O[C@H]2CO[C@@H]3[C@H]2CCO3)O)S(=O)(=O)c4ccc(cc4)N

$$$$
