3JRX_S1A_A_1000
  RCSB PDB08012019313D
Coordinates from PDB:3JRX:A:1000 Model:1 without hydrogens
 37 39  0  0  0  0            999 V2000
  -44.2290   25.2330  -16.0730   C 0  0  0  0  0  0  0  0  0  0  0  0
  -43.0360   25.4650  -17.0210   C 0  0  0  0  0  0  0  0  0  0  0  0
  -43.0030   24.3820  -18.1640   C 0  0  0  0  0  0  0  0  0  0  0  0
  -41.7590   24.5840  -19.1540   C 0  0  0  0  0  0  0  0  0  0  0  0
  -41.9300   23.7530  -20.5000   C 0  0  0  0  0  0  0  0  0  0  0  0
  -43.3720   23.8570  -21.0900   C 0  0  0  0  0  0  0  0  0  0  0  0
  -44.4530   23.5540  -19.9770   C 0  0  0  0  0  0  0  0  0  0  0  0
  -45.9070   23.7030  -20.5330   C 0  0  0  0  0  0  0  0  0  0  0  0
  -46.9490   23.3900  -19.3810   C 0  0  0  0  0  0  0  0  0  0  0  0
  -47.2590   22.0820  -18.9900   C 0  0  0  0  0  0  0  0  0  0  0  0
  -48.2920   21.7990  -17.8550   C 0  0  0  0  0  0  0  0  0  0  0  0
  -47.9140   20.5050  -17.0590   C 0  0  0  0  0  0  0  0  0  0  0  0
  -46.5260   20.6350  -16.3780   C 0  0  0  0  0  0  0  0  0  0  0  0
  -46.4040   21.7570  -15.3570   C 0  0  0  0  0  0  0  0  0  0  0  0
  -45.1070   21.6290  -14.6050   C 0  0  0  0  0  0  0  0  0  0  0  0
  -44.9050   22.6990  -13.5500   C 0  0  0  0  0  0  0  0  0  0  0  0
  -44.9800   24.1660  -14.0080   C 0  0  0  0  0  0  0  0  0  0  0  0
  -41.7310   25.4840  -16.2010   C 0  0  0  0  0  0  0  0  0  0  0  0
  -40.1980   26.3900  -19.4450   C 0  0  0  0  0  0  0  0  0  0  0  0
  -43.5590   25.2460  -21.7550   C 0  0  0  0  0  0  0  0  0  0  0  0
  -46.1710   22.7650  -21.7270   C 0  0  0  0  0  0  0  0  0  0  0  0
  -50.5980   22.3730  -17.7070   C 0  0  0  0  0  0  0  0  0  0  0  0
  -47.9660   18.1030  -17.2720   C 0  0  0  0  0  0  0  0  0  0  0  0
  -44.6950   24.9940  -12.7240   C 0  0  0  0  0  0  0  0  0  0  0  0
  -43.3360   25.0970  -12.2360   C 0  0  0  0  0  0  0  0  0  0  0  0
  -43.0540   25.8000  -11.0500   C 0  0  0  0  0  0  0  0  0  0  0  0
  -44.1070   26.4110  -10.3270   C 0  0  0  0  0  0  0  0  0  0  0  0
  -45.4540   26.3180  -10.7970   C 0  0  0  0  0  0  0  0  0  0  0  0
  -45.7440   25.6080  -12.0010   C 0  0  0  0  0  0  0  0  0  0  0  0
  -45.3970   25.6870  -16.1590   O 0  0  0  0  0  0  0  0  0  0  0  0
  -42.8940   23.0670  -17.5630   O 0  0  0  0  0  0  0  0  0  0  0  0
  -41.6040   25.9910  -19.4730   O 0  0  0  0  0  0  0  0  0  0  0  0
  -41.6270   22.3800  -20.2420   O 0  0  0  0  0  0  0  0  0  0  0  0
  -44.2830   24.4680  -18.8540   O 0  0  0  0  0  0  0  0  0  0  0  0
  -49.5960   21.6190  -18.4420   O 0  0  0  0  0  0  0  0  0  0  0  0
  -47.9080   19.3820  -17.9830   O 0  0  0  0  0  0  0  0  0  0  0  0
  -43.9250   24.4360  -15.0020   O 0  0  0  0  0  0  0  0  0  0  0  0
  1  2  1  0  0  0  0
  1 30  2  0  0  0  0
  1 37  1  0  0  0  0
  2  3  1  0  0  0  0
  2 18  1  0  0  0  0
  3  4  1  0  0  0  0
  3 31  1  0  0  0  0
  3 34  1  0  0  0  0
  4  5  1  0  0  0  0
  4 32  1  0  0  0  0
  5  6  1  0  0  0  0
  5 33  1  0  0  0  0
  6  7  1  0  0  0  0
  6 20  1  0  0  0  0
  7  8  1  0  0  0  0
  7 34  1  0  0  0  0
  8  9  1  0  0  0  0
  8 21  1  0  0  0  0
  9 10  2  0  0  0  0
 10 11  1  0  0  0  0
 11 12  1  0  0  0  0
 11 35  1  0  0  0  0
 12 13  1  0  0  0  0
 12 36  1  0  0  0  0
 13 14  1  0  0  0  0
 14 15  1  0  0  0  0
 15 16  1  0  0  0  0
 16 17  1  0  0  0  0
 17 24  1  0  0  0  0
 17 37  1  0  0  0  0
 19 32  1  0  0  0  0
 22 35  1  0  0  0  0
 23 36  1  0  0  0  0
 24 25  2  0  0  0  0
 24 29  1  0  0  0  0
 25 26  1  0  0  0  0
 26 27  2  0  0  0  0
 27 28  1  0  0  0  0
 28 29  2  0  0  0  0
M  END
>  <InstanceId>
3JRX_S1A_A_1000

>  <ChemCompId>
S1A

>  <PdbId>
3JRX

>  <ChainId>
A

>  <ResidueNumber>
1000

>  <InsertionCode>


>  <Model>
1

>  <AltIds>


>  <MissingHeavyAtoms>
0

>  <ObservedFormula>
C29 O8

>  <Name>
SORAPHEN A

>  <SystematicName>
(1R,2S,5S,10S,11R,12E,14S,15S,16S,17S,18R)-1,17-dihydroxy-10,11,18-trimethoxy-2,14,16-trimethyl-5-phenyl-4,19-dioxabicyclo[13.3.1]nonadec-12-en-3-one

>  <Synonyms>


>  <Type>
NON-POLYMER

>  <Formula>
C29 H44 O8

>  <MolecularWeight>
520.655

>  <ModifiedDate>
2011-06-04

>  <Parent>


>  <OneLetterCode>


>  <SubcomponentList>


>  <AmbiguousFlag>
N

>  <InChI>
InChI=1S/C29H44O8/c1-18-16-17-24(34-5)23(33-4)15-11-10-14-22(21-12-8-7-9-13-21)36-28(31)20(3)29(32)27(35-6)25(30)19(2)26(18)37-29/h7-9,12-13,16-20,22-27,30,32H,10-11,14-15H2,1-6H3/b17-16+/t18-,19-,20+,22-,23-,24+,25-,26-,27+,29+/m0/s1

>  <InChIKey>
WPMGNXPRKGXGBO-OFQQMTDKSA-N

>  <SMILES>
C[C@H]1\C=C\[C@H]([C@H](CCCC[C@H](OC(=O)[C@H]([C@@]2([C@@H]([C@H]([C@@H]([C@H]1O2)C)O)OC)O)C)c3ccccc3)OC)OC

$$$$
