6EDR_ZNA_A_401
  RCSB PDB08022004303D
Coordinates from PDB:6EDR:A:401 Model:1 without hydrogens
 44 48  0  0  0  0            999 V2000
  -17.6340   -0.7870   -1.6460   N 0  0  0  0  0  0  0  0  0  0  0  0
  -16.5490   -0.0120   -1.8220   C 0  0  0  0  0  0  0  0  0  0  0  0
  -16.4620    1.0830   -1.2600   O 0  0  0  0  0  0  0  0  0  0  0  0
  -15.4930   -0.4770   -2.6440   C 0  0  0  0  0  0  0  0  0  0  0  0
  -15.3310   -1.8270   -3.0040   C 0  0  0  0  0  0  0  0  0  0  0  0
  -14.5330    0.4310   -3.1300   C 0  0  0  0  0  0  0  0  0  0  0  0
  -13.4660    0.0080   -3.9310   C 0  0  0  0  0  0  0  0  0  0  0  0
  -13.3230   -1.3320   -4.2840   C 0  0  0  0  0  0  0  0  0  0  0  0
  -14.2680   -2.2560   -3.8320   N 0  0  0  0  0  0  0  0  0  0  0  0
  -14.2040   -3.7160   -4.1270   C 0  0  0  0  0  0  0  0  0  0  0  0
  -13.4170   -4.3990   -2.6430   S 0  0  0  0  0  0  0  0  0  0  0  0
  -13.2890   -4.2680   -5.2740   C 0  0  0  0  0  0  0  0  0  0  0  0
  -13.9080   -5.4530   -5.7930   O 0  0  0  0  0  0  0  0  0  0  0  0
  -11.9030   -4.6760   -4.7050   C 0  0  0  0  0  0  0  0  0  0  0  0
  -11.1940   -5.4990   -5.6580   O 0  0  0  0  0  0  0  0  0  0  0  0
  -12.2080   -5.4960   -3.4490   C 0  0  0  0  0  0  0  0  0  0  0  0
  -10.9820   -5.7040   -2.5550   C 0  0  0  0  0  0  0  0  0  0  0  0
  -11.0490   -4.9440   -1.3330   O 0  0  0  0  0  0  0  0  0  0  0  0
  -11.4470   -5.5860    0.1080   P 0  0  0  0  0  0  0  0  0  0  0  0
  -10.4200   -5.1510    1.0750   O 0  0  0  0  0  0  0  0  0  0  0  0
  -11.7640   -7.0320   -0.0140   O 0  0  0  0  0  0  0  0  0  0  0  0
  -12.8520   -4.8310    0.4150   O 0  0  0  0  0  0  0  0  0  0  0  0
  -13.0440   -3.5020    1.3080   P 0  0  0  0  0  0  0  0  0  0  0  0
  -12.3610   -3.6880    2.6040   O 0  0  0  0  0  0  0  0  0  0  0  0
  -14.4890   -3.1940    1.2990   O 0  0  0  0  0  0  0  0  0  0  0  0
  -12.2240   -2.3260    0.4980   O 0  0  0  0  0  0  0  0  0  0  0  0
  -12.7950   -1.5290   -0.5610   C 0  0  0  0  0  0  0  0  0  0  0  0
  -12.4350   -0.0290   -0.4350   C 0  0  0  0  0  0  0  0  0  0  0  0
  -12.5440    0.5270    0.8940   O 0  0  0  0  0  0  0  0  0  0  0  0
  -10.9750    0.2280   -0.7760   C 0  0  0  0  0  0  0  0  0  0  0  0
  -10.7100    0.0460   -2.1880   O 0  0  0  0  0  0  0  0  0  0  0  0
  -10.8690    1.6880   -0.3700   C 0  0  0  0  0  0  0  0  0  0  0  0
  -11.3150    2.5440   -1.4420   O 0  0  0  0  0  0  0  0  0  0  0  0
  -11.8290    1.8000    0.8360   C 0  0  0  0  0  0  0  0  0  0  0  0
  -11.0850    2.0460    2.1180   N 0  0  0  0  0  0  0  0  0  0  0  0
  -10.3910    1.1070    2.7570   C 0  0  0  0  0  0  0  0  0  0  0  0
   -9.8580    1.6490    3.8480   N 0  0  0  0  0  0  0  0  0  0  0  0
  -10.2150    2.9310    3.9000   C 0  0  0  0  0  0  0  0  0  0  0  0
  -10.9820    3.1800    2.8210   C 0  0  0  0  0  0  0  0  0  0  0  0
  -11.4900    4.4150    2.6140   N 0  0  0  0  0  0  0  0  0  0  0  0
  -11.2170    5.4480    3.5330   C 0  0  0  0  0  0  0  0  0  0  0  0
  -10.4120    5.1540    4.6490   N 0  0  0  0  0  0  0  0  0  0  0  0
   -9.9390    3.9000    4.7930   C 0  0  0  0  0  0  0  0  0  0  0  0
   -9.1710    3.5640    5.8310   N 0  0  0  0  0  0  0  0  0  0  0  0
 13 12  1  0  0  0  0
 15 14  1  0  0  0  0
 12 14  1  0  0  0  0
 12 10  1  0  0  0  0
 14 16  1  0  0  0  0
  8  7  2  0  0  0  0
  8  9  1  0  0  0  0
 10  9  1  0  0  0  0
 10 11  1  0  0  0  0
  7  6  1  0  0  0  0
  9  5  2  0  0  0  0
 16 11  1  0  0  0  0
 16 17  1  0  0  0  0
  6  4  2  0  0  0  0
  5  4  1  0  0  0  0
  4  2  1  0  0  0  0
 17 18  1  0  0  0  0
 31 30  1  0  0  0  0
  2  1  1  0  0  0  0
  2  3  2  0  0  0  0
 33 32  1  0  0  0  0
 18 19  1  0  0  0  0
 30 28  1  0  0  0  0
 30 32  1  0  0  0  0
 27 28  1  0  0  0  0
 27 26  1  0  0  0  0
 28 29  1  0  0  0  0
 32 34  1  0  0  0  0
 21 19  2  0  0  0  0
 19 22  1  0  0  0  0
 19 20  1  0  0  0  0
 22 23  1  0  0  0  0
 26 23  1  0  0  0  0
 34 29  1  0  0  0  0
 34 35  1  0  0  0  0
 25 23  2  0  0  0  0
 23 24  1  0  0  0  0
 35 36  1  0  0  0  0
 35 39  1  0  0  0  0
 40 39  2  0  0  0  0
 40 41  1  0  0  0  0
 36 37  2  0  0  0  0
 39 38  1  0  0  0  0
 41 42  2  0  0  0  0
 37 38  1  0  0  0  0
 38 43  2  0  0  0  0
 42 43  1  0  0  0  0
 43 44  1  0  0  0  0
M  END
>  <InstanceId>
6EDR_ZNA_A_401

>  <ChemCompId>
ZNA

>  <PdbId>
6EDR

>  <ChainId>
A

>  <ResidueNumber>
401

>  <InsertionCode>


>  <Model>
1

>  <AltIds>


>  <MissingHeavyAtoms>
44

>  <ObservedFormula>
C21 N7 O13 P2 S

>  <Name>
[[(2~{R},3~{S},4~{R},5~{R})-5-(3-aminocarbonylpyridin-1-yl)-3,4-bis(oxidanyl)thiolan-2-yl]methoxy-oxidanyl-phosphoryl] [(2~{R},3~{S},4~{R},5~{R})-5-(6-aminopurin-9-yl)-3,4-bis(oxidanyl)oxolan-2-yl]methyl hydrogen phosphate

>  <SystematicName>
[[(2~{R},3~{S},4~{R},5~{R})-5-(3-aminocarbonylpyridin-1-yl)-3,4-bis(oxidanyl)thiolan-2-yl]methoxy-oxidanyl-phosphoryl] [(2~{R},3~{S},4~{R},5~{R})-5-(6-aminopurin-9-yl)-3,4-bis(oxidanyl)oxolan-2-yl]methyl hydrogen phosphate

>  <Synonyms>


>  <Type>
NON-POLYMER

>  <Formula>
C21 H28 N7 O13 P2 S

>  <MolecularWeight>
680.499

>  <ModifiedDate>
2018-11-16

>  <Parent>


>  <OneLetterCode>


>  <SubcomponentList>


>  <AmbiguousFlag>
N

>  <InChI>
InChI=1S/C21H28N7O13P2S/c22-17-12-19(25-7-24-17)28(8-26-12)20-15(31)13(29)10(40-20)5-38-42(34,35)41-43(36,37)39-6-11-14(30)16(32)21(44-11)27-3-1-2-9(4-27)18(23)33/h1-4,7-8,10-11,13-16,20-21,29-32H,5-6H2,(H2,23,33)(H,34,35)(H,36,37)(H2,22,24,25)/t10-,11-,13-,14-,15-,16-,20-,21-/m1/s1

>  <InChIKey>
XQRIZGZMBOXBTO-NNYOXOHSSA-N

>  <SMILES>
c1nc(c2c(n1)n(cn2)[C@H]3[C@@H]([C@@H]([C@H](O3)COP(=O)(O)OP(=O)(O)OC[C@@H]4[C@H]([C@H]([C@@H](S4)[N]5=CC(=CC=C5)C(=O)N)O)O)O)O)N

$$$$
