6GJJ_L36_A_201
  RCSB PDB08022004493D
Coordinates from PDB:6GJJ:A:201 Model:1 without hydrogens
 20 20  0  0  0  0            999 V2000
   -0.5890   17.5410   -6.5460   O 0  0  0  0  0  0  0  0  0  0  0  0
   -1.1520   18.1810   -5.6590   C 0  0  0  0  0  0  0  0  0  0  0  0
   -1.2660   17.6910   -4.4280   N 0  0  0  0  0  0  0  0  0  0  0  0
   -0.6660   16.4240   -4.0590   C 0  0  0  0  0  0  0  0  0  0  0  0
   -1.3770   15.2620   -4.7100   C 0  0  0  0  0  0  0  0  0  0  0  0
   -0.5770   14.2040   -4.8160   O 0  0  0  0  0  0  0  0  0  0  0  0
   -1.1330   12.8910   -4.8510   C 0  0  0  0  0  0  0  0  0  0  0  0
   -0.0200   11.8700   -4.7560   C 0  0  0  0  0  0  0  0  0  0  0  0
   -2.5340   15.2740   -5.0960   O 0  0  0  0  0  0  0  0  0  0  0  0
   -1.6660   19.3830   -5.9030   N 0  0  0  0  0  0  0  0  0  0  0  0
   -2.1080   20.2640   -4.8330   C 0  0  0  0  0  0  0  0  0  0  0  0
   -0.9170   20.9980   -4.2570   C 0  0  0  0  0  0  0  0  0  0  0  0
   -1.8190   19.8980   -7.2550   C 0  0  0  0  0  0  0  0  0  0  0  0
   -3.2600   19.9630   -7.7050   C 0  0  0  0  0  0  0  0  0  0  0  0
   -4.0580   18.8260   -7.6480   C 0  0  0  0  0  0  0  0  0  0  0  0
   -5.3840   18.8860   -8.0630   C 0  0  0  0  0  0  0  0  0  0  0  0
   -5.9110   20.0820   -8.5340   C 0  0  0  0  0  0  0  0  0  0  0  0
   -7.2030   20.1400   -8.9380   N 0  0  0  0  0  0  0  0  0  0  0  0
   -5.1130   21.2190   -8.5910   C 0  0  0  0  0  0  0  0  0  0  0  0
   -3.7880   21.1590   -8.1770   C 0  0  0  0  0  0  0  0  0  0  0  0
 18 17  1  0  0  0  0
 17 16  2  0  0  0  0
 17 19  1  0  0  0  0
 16 15  1  0  0  0  0
 19 20  2  0  0  0  0
 15 14  2  0  0  0  0
 20 14  1  0  0  0  0
 14 13  1  0  0  0  0
 13 10  1  0  0  0  0
  1  2  2  0  0  0  0
 10  2  1  0  0  0  0
 10 11  1  0  0  0  0
  2  3  1  0  0  0  0
  9  5  2  0  0  0  0
  7  8  1  0  0  0  0
  7  6  1  0  0  0  0
 11 12  1  0  0  0  0
  6  5  1  0  0  0  0
  5  4  1  0  0  0  0
  3  4  1  0  0  0  0
M  END
>  <InstanceId>
6GJJ_L36_A_201

>  <ChemCompId>
L36

>  <PdbId>
6GJJ

>  <ChainId>
A

>  <ResidueNumber>
201

>  <InsertionCode>


>  <Model>
1

>  <AltIds>


>  <MissingHeavyAtoms>
1

>  <ObservedFormula>
C14 N3 O3

>  <Name>
ethyl 2-[[(4-aminophenyl)methyl-propyl-carbamoyl]amino]ethanoate

>  <SystematicName>
ethyl 2-[[(4-aminophenyl)methyl-propyl-carbamoyl]amino]ethanoate

>  <Synonyms>


>  <Type>
NON-POLYMER

>  <Formula>
C15 H23 N3 O3

>  <MolecularWeight>
293.361

>  <ModifiedDate>
2018-11-02

>  <Parent>


>  <OneLetterCode>


>  <SubcomponentList>


>  <AmbiguousFlag>
N

>  <InChI>
InChI=1S/C15H23N3O3/c1-3-9-18(11-12-5-7-13(16)8-6-12)15(20)17-10-14(19)21-4-2/h5-8H,3-4,9-11,16H2,1-2H3,(H,17,20)

>  <InChIKey>
KHLQRJYGXHCNMH-UHFFFAOYSA-N

>  <SMILES>
CCCN(Cc1ccc(cc1)N)C(=O)NCC(=O)OCC

$$$$
