6G9U_ETK_A_302
  RCSB PDB08022004473D
Coordinates from PDB:6G9U:A:302 Model:1 without hydrogens
 34 36  0  0  0  0            999 V2000
    8.8430  -29.8400  -59.9440   F 0  0  0  0  0  0  0  0  0  0  0  0
    9.5970  -28.9010  -59.3550   C 0  0  0  0  0  0  0  0  0  0  0  0
   10.8070  -28.3960  -59.9720   C 0  0  0  0  0  0  0  0  0  0  0  0
   11.2670  -29.0210  -61.4800   S 0  0  0  0  0  0  0  0  0  0  0  0
   12.0070  -30.5880  -61.0030   C 0  0  0  0  0  0  0  0  0  0  0  0
   13.3520  -30.4870  -60.2590   C 0  0  0  0  0  0  0  0  0  0  0  0
   14.4270  -30.1130  -61.2400   C 0  0  0  0  0  0  0  0  0  0  0  0
   14.7480  -31.0370  -62.2420   C 0  0  0  0  0  0  0  0  0  0  0  0
   15.7190  -30.7160  -63.1780   C 0  0  0  0  0  0  0  0  0  0  0  0
   16.3730  -29.4810  -63.1390   C 0  0  0  0  0  0  0  0  0  0  0  0
   17.3960  -29.1840  -64.2070   C 0  0  0  0  0  0  0  0  0  0  0  0
   17.8570  -28.0340  -64.3420   O 0  0  0  0  0  0  0  0  0  0  0  0
   17.7120  -30.0890  -64.9960   O 0  0  0  0  0  0  0  0  0  0  0  0
   16.0520  -28.5480  -62.1360   C 0  0  0  0  0  0  0  0  0  0  0  0
   15.0790  -28.8710  -61.1820   C 0  0  0  0  0  0  0  0  0  0  0  0
    9.1850  -28.3960  -58.0390   C 0  0  0  0  0  0  0  0  0  0  0  0
    8.0790  -28.9010  -57.5250   F 0  0  0  0  0  0  0  0  0  0  0  0
    9.9080  -27.3480  -57.2970   C 0  0  0  0  0  0  0  0  0  0  0  0
    9.2740  -26.8930  -55.8470   S 0  0  0  0  0  0  0  0  0  0  0  0
    9.5620  -27.9170  -54.8580   O 0  0  0  0  0  0  0  0  0  0  0  0
    7.7040  -26.7330  -56.0450   N 0  0  0  0  0  0  0  0  0  0  0  0
    9.8720  -25.6490  -55.4580   O 0  0  0  0  0  0  0  0  0  0  0  0
   11.1420  -26.8240  -57.9400   C 0  0  0  0  0  0  0  0  0  0  0  0
   11.5800  -27.3640  -59.2660   C 0  0  0  0  0  0  0  0  0  0  0  0
   12.6700  -26.8910  -59.8580   F 0  0  0  0  0  0  0  0  0  0  0  0
   11.9170  -25.9860  -57.2300   N 0  0  0  0  0  0  0  0  0  0  0  0
   13.3650  -26.1330  -57.1150   C 0  0  0  0  0  0  0  0  0  0  0  0
   13.5920  -27.4380  -56.3270   C 0  0  0  0  0  0  0  0  0  0  0  0
   15.0090  -28.0100  -56.3580   C 0  0  0  0  0  0  0  0  0  0  0  0
   15.8090  -27.8220  -55.0680   C 0  0  0  0  0  0  0  0  0  0  0  0
   15.5500  -26.5260  -54.2770   C 0  0  0  0  0  0  0  0  0  0  0  0
   16.0310  -25.2480  -54.9550   C 0  0  0  0  0  0  0  0  0  0  0  0
   15.4520  -24.8540  -56.3210   C 0  0  0  0  0  0  0  0  0  0  0  0
   13.9250  -24.9340  -56.3700   C 0  0  0  0  0  0  0  0  0  0  0  0
 13 11  2  0  0  0  0
 12 11  1  0  0  0  0
 11 10  1  0  0  0  0
  9 10  2  0  0  0  0
  9  8  1  0  0  0  0
 10 14  1  0  0  0  0
  8  7  2  0  0  0  0
 14 15  2  0  0  0  0
  4  5  1  0  0  0  0
  4  3  1  0  0  0  0
  7 15  1  0  0  0  0
  7  6  1  0  0  0  0
  5  6  1  0  0  0  0
  3  2  2  0  0  0  0
  3 24  1  0  0  0  0
  1  2  1  0  0  0  0
 25 24  1  0  0  0  0
  2 16  1  0  0  0  0
 24 23  2  0  0  0  0
 16 17  1  0  0  0  0
 16 18  2  0  0  0  0
 23 18  1  0  0  0  0
 23 26  1  0  0  0  0
 18 19  1  0  0  0  0
 26 27  1  0  0  0  0
 27 34  1  0  0  0  0
 27 28  1  0  0  0  0
 34 33  1  0  0  0  0
 29 28  1  0  0  0  0
 29 30  1  0  0  0  0
 33 32  1  0  0  0  0
 21 19  1  0  0  0  0
 19 22  2  0  0  0  0
 19 20  2  0  0  0  0
 30 31  1  0  0  0  0
 32 31  1  0  0  0  0
M  END
>  <InstanceId>
6G9U_ETK_A_302

>  <ChemCompId>
ETK

>  <PdbId>
6G9U

>  <ChainId>
A

>  <ResidueNumber>
302

>  <InsertionCode>


>  <Model>
1

>  <AltIds>


>  <MissingHeavyAtoms>
0

>  <ObservedFormula>
C23 N2 O4 S2 F3

>  <Name>
4-[2-[3-(cyclooctylamino)-2,5,6-tris(fluoranyl)-4-sulfamoyl-phenyl]sulfanylethyl]benzoic acid

>  <SystematicName>
4-[2-[3-(cyclooctylamino)-2,5,6-tris(fluoranyl)-4-sulfamoyl-phenyl]sulfanylethyl]benzoic acid

>  <Synonyms>


>  <Type>
NON-POLYMER

>  <Formula>
C23 H27 F3 N2 O4 S2

>  <MolecularWeight>
516.597

>  <ModifiedDate>
2018-06-29

>  <Parent>


>  <OneLetterCode>


>  <SubcomponentList>


>  <AmbiguousFlag>
N

>  <InChI>
InChI=1S/C23H27F3N2O4S2/c24-17-18(25)22(34(27,31)32)20(28-16-6-4-2-1-3-5-7-16)19(26)21(17)33-13-12-14-8-10-15(11-9-14)23(29)30/h8-11,16,28H,1-7,12-13H2,(H,29,30)(H2,27,31,32)

>  <InChIKey>
NSPLIZZJJJBIDP-UHFFFAOYSA-N

>  <SMILES>
c1cc(ccc1CCSc2c(c(c(c(c2F)F)S(=O)(=O)N)NC3CCCCCCC3)F)C(=O)O

$$$$
