1TCX_IM1_A_400
  RCSB PDB08012016003D
Coordinates from PDB:1TCX:A:400 Model:1 without hydrogens
 39 41  0  0  0  0            999 V2000
   16.0320   19.1690    3.6700   C 0  0  0  0  0  0  0  0  0  0  0  0
   17.2640   18.5970    3.0080   C 0  0  0  0  0  0  0  0  0  0  0  0
   15.4290   17.9750    4.3850   C 0  0  0  0  0  0  0  0  0  0  0  0
   15.1010   19.6680    2.5830   C 0  0  0  0  0  0  0  0  0  0  0  0
   16.4370   20.1680    4.5570   O 0  0  0  0  0  0  0  0  0  0  0  0
   15.5330   20.9730    5.2510   C 0  0  0  0  0  0  0  0  0  0  0  0
   14.4020   20.6100    5.6320   O 0  0  0  0  0  0  0  0  0  0  0  0
   15.8970   22.2070    5.5140   N 0  0  0  0  0  0  0  0  0  0  0  0
   14.9560   23.0620    6.2390   C 0  0  0  0  0  0  0  0  0  0  0  0
   15.7410   23.6020    7.4380   C 0  0  0  0  0  0  0  0  0  0  0  0
   16.2490   22.4870    8.3460   C 0  0  0  0  0  0  0  0  0  0  0  0
   17.6100   22.1560    8.3590   C 0  0  0  0  0  0  0  0  0  0  0  0
   18.0550   21.1190    9.1810   C 0  0  0  0  0  0  0  0  0  0  0  0
   17.1490   20.4110    9.9930   C 0  0  0  0  0  0  0  0  0  0  0  0
   15.7970   20.7450    9.9780   C 0  0  0  0  0  0  0  0  0  0  0  0
   15.3430   21.7870    9.1510   C 0  0  0  0  0  0  0  0  0  0  0  0
   14.2390   24.1750    5.4160   C 0  0  0  0  0  0  0  0  0  0  0  0
   15.1250   24.9730    4.6860   O 0  0  0  0  0  0  0  0  0  0  0  0
   13.3260   23.6540    4.3360   C 0  0  0  0  0  0  0  0  0  0  0  0
   12.1530   24.5450    4.0370   C 0  0  0  0  0  0  0  0  0  0  0  0
   11.3850   23.9130    2.8600   C 0  0  0  0  0  0  0  0  0  0  0  0
    9.9830   24.4580    2.6170   C 0  0  0  0  0  0  0  0  0  0  0  0
    8.8750   23.6660    2.9090   C 0  0  0  0  0  0  0  0  0  0  0  0
    7.5900   24.1650    2.6840   C 0  0  0  0  0  0  0  0  0  0  0  0
    7.3960   25.4520    2.1700   C 0  0  0  0  0  0  0  0  0  0  0  0
    8.5010   26.2440    1.8800   C 0  0  0  0  0  0  0  0  0  0  0  0
    9.7890   25.7470    2.1020   C 0  0  0  0  0  0  0  0  0  0  0  0
   11.2680   24.6780    5.2890   C 0  0  0  0  0  0  0  0  0  0  0  0
   11.1430   23.7870    6.1390   O 0  0  0  0  0  0  0  0  0  0  0  0
   10.6160   25.8120    5.4330   N 0  0  0  0  0  0  0  0  0  0  0  0
    9.7290   26.0560    6.5610   C 0  0  0  0  0  0  0  0  0  0  0  0
   10.3910   26.7680    7.7500   C 0  0  0  0  0  0  0  0  0  0  0  0
    9.4470   26.6250    8.8760   C 0  0  0  0  0  0  0  0  0  0  0  0
   11.6420   26.1210    8.2630   C 0  0  0  0  0  0  0  0  0  0  0  0
    8.6810   26.9950    5.9480   C 0  0  0  0  0  0  0  0  0  0  0  0
    8.8080   28.0530    5.1270   N 0  0  0  0  0  0  0  0  0  0  0  0
    7.5050   28.2600    4.7230   C 0  0  0  0  0  0  0  0  0  0  0  0
    6.6720   27.3110    5.3280   C 0  0  0  0  0  0  0  0  0  0  0  0
    7.4660   26.5120    6.1110   N 0  0  0  0  0  0  0  0  0  0  0  0
  1  2  1  0  0  0  0
  1  3  1  0  0  0  0
  1  4  1  0  0  0  0
  1  5  1  0  0  0  0
  5  6  1  0  0  0  0
  6  7  2  0  0  0  0
  6  8  1  0  0  0  0
  8  9  1  0  0  0  0
  9 10  1  0  0  0  0
  9 17  1  0  0  0  0
 10 11  1  0  0  0  0
 11 12  2  0  0  0  0
 11 16  1  0  0  0  0
 12 13  1  0  0  0  0
 13 14  2  0  0  0  0
 14 15  1  0  0  0  0
 15 16  2  0  0  0  0
 17 18  1  0  0  0  0
 17 19  1  0  0  0  0
 19 20  1  0  0  0  0
 20 21  1  0  0  0  0
 20 28  1  0  0  0  0
 21 22  1  0  0  0  0
 22 23  2  0  0  0  0
 22 27  1  0  0  0  0
 23 24  1  0  0  0  0
 24 25  2  0  0  0  0
 25 26  1  0  0  0  0
 26 27  2  0  0  0  0
 28 29  2  0  0  0  0
 28 30  1  0  0  0  0
 30 31  1  0  0  0  0
 31 32  1  0  0  0  0
 31 35  1  0  0  0  0
 32 33  1  0  0  0  0
 32 34  1  0  0  0  0
 35 36  1  0  0  0  0
 35 39  2  0  0  0  0
 36 37  1  0  0  0  0
 37 38  2  0  0  0  0
 38 39  1  0  0  0  0
M  END
>  <InstanceId>
1TCX_IM1_A_400

>  <ChemCompId>
IM1

>  <PdbId>
1TCX

>  <ChainId>
A

>  <ResidueNumber>
400

>  <InsertionCode>


>  <Model>
1

>  <AltIds>


>  <MissingHeavyAtoms>
0

>  <ObservedFormula>
C31 N4 O4

>  <Name>
(2R,4S,5S,1'S)-2-PHENYLMETHYL-4-HYDROXY-5-(TERT-BUTOXYCARBONYL)AMINO-6-PHENYL HEXANOYL-N-(1'-IMIDAZO-2-YL)-2'-METHYLPROPANAMIDE

>  <SystematicName>
tert-butyl N-[(2S,3S,5R)-3-hydroxy-6-[[(1S)-1-(1H-imidazol-2-yl)-2-methyl-propyl]amino]-6-oxo-1-phenyl-5-(phenylmethyl)hexan-2-yl]carbamate

>  <Synonyms>


>  <Type>
NON-POLYMER

>  <Formula>
C31 H42 N4 O4

>  <MolecularWeight>
534.69

>  <ModifiedDate>
2011-06-04

>  <Parent>


>  <OneLetterCode>


>  <SubcomponentList>


>  <AmbiguousFlag>
N

>  <InChI>
InChI=1S/C31H42N4O4/c1-21(2)27(28-32-16-17-33-28)35-29(37)24(18-22-12-8-6-9-13-22)20-26(36)25(19-23-14-10-7-11-15-23)34-30(38)39-31(3,4)5/h6-17,21,24-27,36H,18-20H2,1-5H3,(H,32,33)(H,34,38)(H,35,37)/t24-,25+,26+,27+/m1/s1

>  <InChIKey>
QAHXABIFJPGWDD-WKAQUBQDSA-N

>  <SMILES>
CC(C)[C@@H](c1[nH]ccn1)NC(=O)[C@H](Cc2ccccc2)C[C@@H]([C@H](Cc3ccccc3)NC(=O)OC(C)(C)C)O

$$$$
