2CBZ_ATP_A_1873
  RCSB PDB08012016463D
Coordinates from PDB:2CBZ:A:1873 Model:1 without hydrogens
 31 33  0  0  0  0            999 V2000
  -21.6390   46.5380    6.1560   P 0  0  0  0  0  0  0  0  0  0  0  0
  -20.3700   46.4390    6.9590   O 0  0  0  0  0  0  0  0  0  0  0  0
  -22.1040   45.2090    5.6090   O 0  0  0  0  0  0  0  0  0  0  0  0
  -22.7510   47.3510    6.7940   O 0  0  0  0  0  0  0  0  0  0  0  0
  -20.4670   48.7440    4.7010   P 0  0  0  0  0  0  0  0  0  0  0  0
  -21.3820   49.9060    4.9470   O 0  0  0  0  0  0  0  0  0  0  0  0
  -19.2030   48.6860    5.5020   O 0  0  0  0  0  0  0  0  0  0  0  0
  -21.2820   47.3520    4.7910   O 0  0  0  0  0  0  0  0  0  0  0  0
  -18.7830   48.4910    2.3300   P 0  0  0  0  0  0  0  0  0  0  0  0
  -18.1920   47.1910    2.7830   O 0  0  0  0  0  0  0  0  0  0  0  0
  -17.9360   49.7310    2.3580   O 0  0  0  0  0  0  0  0  0  0  0  0
  -20.1500   48.7920    3.1230   O 0  0  0  0  0  0  0  0  0  0  0  0
  -19.3930   48.2200    0.8620   O 0  0  0  0  0  0  0  0  0  0  0  0
  -19.5630   49.1970   -0.1620   C 0  0  0  0  0  0  0  0  0  0  0  0
  -18.8580   48.6920   -1.4330   C 0  0  0  0  0  0  0  0  0  0  0  0
  -17.4480   48.6460   -1.1630   O 0  0  0  0  0  0  0  0  0  0  0  0
  -19.2460   47.2590   -1.7870   C 0  0  0  0  0  0  0  0  0  0  0  0
  -19.3310   47.1290   -3.2130   O 0  0  0  0  0  0  0  0  0  0  0  0
  -18.0870   46.4230   -1.2770   C 0  0  0  0  0  0  0  0  0  0  0  0
  -17.9270   45.1870   -1.9700   O 0  0  0  0  0  0  0  0  0  0  0  0
  -16.9180   47.3630   -1.5080   C 0  0  0  0  0  0  0  0  0  0  0  0
  -15.7510   47.0150   -0.6660   N 0  0  0  0  0  0  0  0  0  0  0  0
  -15.6710   47.1300    0.6740   C 0  0  0  0  0  0  0  0  0  0  0  0
  -14.4570   46.7300    1.1340   N 0  0  0  0  0  0  0  0  0  0  0  0
  -13.7280   46.3530    0.0660   C 0  0  0  0  0  0  0  0  0  0  0  0
  -12.3530   45.8280   -0.1530   C 0  0  0  0  0  0  0  0  0  0  0  0
  -11.5200   45.6290    0.8990   N 0  0  0  0  0  0  0  0  0  0  0  0
  -11.9750   45.5590   -1.4290   N 0  0  0  0  0  0  0  0  0  0  0  0
  -12.8090   45.7610   -2.4780   C 0  0  0  0  0  0  0  0  0  0  0  0
  -14.0700   46.2370   -2.3500   N 0  0  0  0  0  0  0  0  0  0  0  0
  -14.5810   46.5430   -1.1230   C 0  0  0  0  0  0  0  0  0  0  0  0
  1  2  2  0  0  0  0
  1  3  1  0  0  0  0
  1  4  1  0  0  0  0
  1  8  1  0  0  0  0
  5  6  2  0  0  0  0
  5  7  1  0  0  0  0
  5  8  1  0  0  0  0
  5 12  1  0  0  0  0
  9 10  2  0  0  0  0
  9 11  1  0  0  0  0
  9 12  1  0  0  0  0
  9 13  1  0  0  0  0
 13 14  1  0  0  0  0
 14 15  1  0  0  0  0
 15 16  1  0  0  0  0
 15 17  1  0  0  0  0
 16 21  1  0  0  0  0
 17 18  1  0  0  0  0
 17 19  1  0  0  0  0
 19 20  1  0  0  0  0
 19 21  1  0  0  0  0
 21 22  1  0  0  0  0
 22 23  1  0  0  0  0
 22 31  1  0  0  0  0
 23 24  2  0  0  0  0
 24 25  1  0  0  0  0
 25 26  1  0  0  0  0
 25 31  2  0  0  0  0
 26 27  1  0  0  0  0
 26 28  2  0  0  0  0
 28 29  1  0  0  0  0
 29 30  2  0  0  0  0
 30 31  1  0  0  0  0
M  END
>  <InstanceId>
2CBZ_ATP_A_1873

>  <ChemCompId>
ATP

>  <PdbId>
2CBZ

>  <ChainId>
A

>  <ResidueNumber>
1873

>  <InsertionCode>


>  <Model>
1

>  <AltIds>


>  <MissingHeavyAtoms>
0

>  <ObservedFormula>
C10 N5 O13 P3

>  <Name>
ADENOSINE-5'-TRIPHOSPHATE

>  <SystematicName>
[[(2R,3S,4R,5R)-5-(6-aminopurin-9-yl)-3,4-dihydroxy-oxolan-2-yl]methoxy-hydroxy-phosphoryl] phosphono hydrogen phosphate

>  <Synonyms>


>  <Type>
NON-POLYMER

>  <Formula>
C10 H16 N5 O13 P3

>  <MolecularWeight>
507.181

>  <ModifiedDate>
2011-06-04

>  <Parent>


>  <OneLetterCode>


>  <SubcomponentList>


>  <AmbiguousFlag>
N

>  <InChI>
InChI=1S/C10H16N5O13P3/c11-8-5-9(13-2-12-8)15(3-14-5)10-7(17)6(16)4(26-10)1-25-30(21,22)28-31(23,24)27-29(18,19)20/h2-4,6-7,10,16-17H,1H2,(H,21,22)(H,23,24)(H2,11,12,13)(H2,18,19,20)/t4-,6-,7-,10-/m1/s1

>  <InChIKey>
ZKHQWZAMYRWXGA-KQYNXXCUSA-N

>  <SMILES>
c1nc(c2c(n1)n(cn2)[C@H]3[C@@H]([C@@H]([C@H](O3)CO[P@@](=O)(O)O[P@](=O)(O)OP(=O)(O)O)O)O)N

$$$$
