1GYX_BEZ_A_1077
  RCSB PDB08012015013D
Coordinates from PDB:1GYX:A:1077 Model:1 without hydrogens
  9  9  0  0  0  0            999 V2000
   11.3000    4.4720   23.3280   C 0  0  0  0  0  0  0  0  0  0  0  0
   10.9970    4.2850   22.1630   O 0  0  0  0  0  0  0  0  0  0  0  0
   10.8480    5.5550   23.9370   O 0  0  0  0  0  0  0  0  0  0  0  0
   12.1110    3.4730   24.0570   C 0  0  0  0  0  0  0  0  0  0  0  0
   12.7670    3.7760   25.2500   C 0  0  0  0  0  0  0  0  0  0  0  0
   13.5420    2.8200   25.9060   C 0  0  0  0  0  0  0  0  0  0  0  0
   13.6550    1.5650   25.3410   C 0  0  0  0  0  0  0  0  0  0  0  0
   13.0260    1.2680   24.1570   C 0  0  0  0  0  0  0  0  0  0  0  0
   12.2490    2.2020   23.4850   C 0  0  0  0  0  0  0  0  0  0  0  0
  1  2  2  0  0  0  0
  1  3  1  0  0  0  0
  1  4  1  0  0  0  0
  4  5  2  0  0  0  0
  4  9  1  0  0  0  0
  5  6  1  0  0  0  0
  6  7  2  0  0  0  0
  7  8  1  0  0  0  0
  8  9  2  0  0  0  0
M  END
>  <InstanceId>
1GYX_BEZ_A_1077

>  <ChemCompId>
BEZ

>  <PdbId>
1GYX

>  <ChainId>
A

>  <ResidueNumber>
1077

>  <InsertionCode>


>  <Model>
1

>  <AltIds>


>  <MissingHeavyAtoms>
0

>  <ObservedFormula>
C7 O2

>  <Name>
BENZOIC ACID

>  <SystematicName>
benzoic acid

>  <Synonyms>


>  <Type>
NON-POLYMER

>  <Formula>
C7 H6 O2

>  <MolecularWeight>
122.121

>  <ModifiedDate>
2011-12-20

>  <Parent>


>  <OneLetterCode>


>  <SubcomponentList>


>  <AmbiguousFlag>
N

>  <InChI>
InChI=1S/C7H6O2/c8-7(9)6-4-2-1-3-5-6/h1-5H,(H,8,9)

>  <InChIKey>
WPYMKLBDIGXBTP-UHFFFAOYSA-N

>  <SMILES>
c1ccc(cc1)C(=O)O

$$$$
