3D51_GOX_A_1048
  RCSB PDB08012018483D
Coordinates from PDB:3D51:A:1048 Model:1 without hydrogens
 13 13  0  0  0  0            999 V2000
   30.8330   65.8530    9.7600   C 0  0  0  0  0  0  0  0  0  0  0  0
   30.7250   65.8020   11.0680   N 0  0  0  0  0  0  0  0  0  0  0  0
   31.9830   65.2300    9.0090   C 0  0  0  0  0  0  0  0  0  0  0  0
   29.8530   66.4580    9.0170   N 0  0  0  0  0  0  0  0  0  0  0  0
   29.6260   66.4080   11.6110   O 0  0  0  0  0  0  0  0  0  0  0  0
   33.0870   64.8900    9.8330   O 0  0  0  0  0  0  0  0  0  0  0  0
   32.4080   66.1970    7.9130   C 0  0  0  0  0  0  0  0  0  0  0  0
   33.5370   65.5880    7.2760   O 0  0  0  0  0  0  0  0  0  0  0  0
   31.2630   66.2720    6.9030   C 0  0  0  0  0  0  0  0  0  0  0  0
   31.5320   67.2240    5.8920   O 0  0  0  0  0  0  0  0  0  0  0  0
   29.9020   66.6560    7.5430   C 0  0  0  0  0  0  0  0  0  0  0  0
   28.7560   65.9480    6.8330   C 0  0  0  0  0  0  0  0  0  0  0  0
   27.5330   66.3900    7.4590   O 0  0  0  0  0  0  0  0  0  0  0  0
  1  2  2  0  0  0  0
  1  3  1  0  0  0  0
  1  4  1  0  0  0  0
  2  5  1  0  0  0  0
  3  6  1  0  0  0  0
  3  7  1  0  0  0  0
  4 11  1  0  0  0  0
  7  8  1  0  0  0  0
  7  9  1  0  0  0  0
  9 10  1  0  0  0  0
  9 11  1  0  0  0  0
 11 12  1  0  0  0  0
 12 13  1  0  0  0  0
M  END
>  <InstanceId>
3D51_GOX_A_1048

>  <ChemCompId>
GOX

>  <PdbId>
3D51

>  <ChainId>
A

>  <ResidueNumber>
1048

>  <InsertionCode>


>  <Model>
1

>  <AltIds>


>  <MissingHeavyAtoms>
0

>  <ObservedFormula>
C6 N2 O5

>  <Name>
(2S,3S,4R,5R)-6-(HYDROXYAMINO)-2-(HYDROXYMETHYL)-2,3,4,5-TETRAHYDROPYRIDINE-3,4,5-TRIOL

>  <SystematicName>
(2Z,3S,4S,5R,6R)-2-hydroxyimino-6-(hydroxymethyl)piperidine-3,4,5-triol

>  <Synonyms>
D-GLUCONHYDROXIMO-1,5-LACTAM

>  <Type>
NON-POLYMER

>  <Formula>
C6 H12 N2 O5

>  <MolecularWeight>
192.17

>  <ModifiedDate>
2020-06-17

>  <Parent>


>  <OneLetterCode>


>  <SubcomponentList>


>  <AmbiguousFlag>
N

>  <InChI>
InChI=1S/C6H12N2O5/c9-1-2-3(10)4(11)5(12)6(7-2)8-13/h2-5,9-13H,1H2,(H,7,8)/t2-,3-,4+,5-/m1/s1

>  <InChIKey>
VBXHGXTYZGYTQG-SQOUGZDYSA-N

>  <SMILES>
C([C@@H]1[C@H]([C@@H]([C@H](/C(=N/O)/N1)O)O)O)O

$$$$
