6HLY_G9Z_A_410
  RCSB PDB08022005003D
Coordinates from PDB:6HLY:A:410 Model:1 without hydrogens
 20 20  0  0  0  0            999 V2000
   54.5440   10.3550   79.5830   O 0  0  0  0  0  0  0  0  0  0  0  0
   53.2980   10.5030   79.7020   C 0  0  0  0  0  0  0  0  0  0  0  0
   52.3290    9.8820   78.8530   C 0  0  0  0  0  0  0  0  0  0  0  0
   50.9710   10.5280   79.2570   C 0  0  0  0  0  0  0  0  0  0  0  0
   51.2590   11.3990   80.5010   C 0  0  0  0  0  0  0  0  0  0  0  0
   50.4500   10.9350   81.6310   C 0  0  0  0  0  0  0  0  0  0  0  0
   49.2080   11.1450   81.6110   O 0  0  0  0  0  0  0  0  0  0  0  0
   52.7300   11.2950   80.6320   N 0  0  0  0  0  0  0  0  0  0  0  0
   53.4790   12.0330   81.6760   C 0  0  0  0  0  0  0  0  0  0  0  0
   53.8570   13.4370   81.1900   C 0  0  0  0  0  0  0  0  0  0  0  0
   52.6580   14.1660   80.8470   O 0  0  0  0  0  0  0  0  0  0  0  0
   54.5850   14.2160   82.2950   C 0  0  0  0  0  0  0  0  0  0  0  0
   53.9160   14.0500   83.5730   O 0  0  0  0  0  0  0  0  0  0  0  0
   56.0960   13.9010   82.3810   C 0  0  0  0  0  0  0  0  0  0  0  0
   56.2920   12.5290   82.7590   O 0  0  0  0  0  0  0  0  0  0  0  0
   56.7270   14.7710   83.4730   C 0  0  0  0  0  0  0  0  0  0  0  0
   56.5630   16.1680   83.1190   O 0  0  0  0  0  0  0  0  0  0  0  0
   58.2210   14.4550   83.6510   C 0  0  0  0  0  0  0  0  0  0  0  0
   58.9480   14.5880   82.4150   O 0  0  0  0  0  0  0  0  0  0  0  0
   51.0160   10.3270   82.5570   O 0  0  0  0  0  0  0  0  0  0  0  0
  7  6  2  0  0  0  0
  4  3  2  0  0  0  0
  4  5  1  0  0  0  0
  3  2  1  0  0  0  0
  6 20  1  0  0  0  0
  6  5  1  0  0  0  0
  5  8  1  0  0  0  0
  2  1  2  0  0  0  0
  2  8  1  0  0  0  0
  8  9  1  0  0  0  0
  9 10  1  0  0  0  0
 10 11  1  0  0  0  0
 10 12  1  0  0  0  0
 13 12  1  0  0  0  0
 12 14  1  0  0  0  0
 14 16  1  0  0  0  0
 14 15  1  0  0  0  0
 16 18  1  0  0  0  0
 16 17  1  0  0  0  0
 18 19  1  0  0  0  0
M  END
>  <InstanceId>
6HLY_G9Z_A_410

>  <ChemCompId>
G9Z

>  <PdbId>
6HLY

>  <ChainId>
A

>  <ResidueNumber>
410

>  <InsertionCode>


>  <Model>
1

>  <AltIds>


>  <MissingHeavyAtoms>
0

>  <ObservedFormula>
C11 N O8

>  <Name>
agropinic acid

>  <SystematicName>
(2~{S})-5-oxidanylidene-1-[(2~{R},3~{R},4~{R},5~{R})-2,3,4,5,6-pentakis(oxidanyl)hexyl]-2~{H}-pyrrole-2-carboxylic acid

>  <Synonyms>


>  <Type>
NON-POLYMER

>  <Formula>
C11 H17 N O8

>  <MolecularWeight>
291.255

>  <ModifiedDate>
2018-12-21

>  <Parent>


>  <OneLetterCode>


>  <SubcomponentList>


>  <AmbiguousFlag>
N

>  <InChI>
InChI=1S/C11H17NO8/c13-4-7(15)10(18)9(17)6(14)3-12-5(11(19)20)1-2-8(12)16/h1-2,5-7,9-10,13-15,17-18H,3-4H2,(H,19,20)/t5-,6+,7+,9+,10+/m0/s1

>  <InChIKey>
WYIHPABVKQQJFB-SZWOQXJISA-N

>  <SMILES>
C1=CC(=O)N([C@@H]1C(=O)O)C[C@H]([C@H]([C@@H]([C@@H](CO)O)O)O)O

$$$$
