1J16_BEN_A_1
  RCSB PDB08012015113D
Coordinates from PDB:1J16:A:1 Model:1 without hydrogens
  9  9  0  0  0  0            999 V2000
    7.6690   49.7290   54.9860   C 0  0  0  0  0  0  0  0  0  0  0  0
    7.6600   48.5450   54.2340   C 0  0  0  0  0  0  0  0  0  0  0  0
    7.7490   47.2910   54.8600   C 0  0  0  0  0  0  0  0  0  0  0  0
    7.7720   47.2190   56.2540   C 0  0  0  0  0  0  0  0  0  0  0  0
    7.8360   48.3980   57.0080   C 0  0  0  0  0  0  0  0  0  0  0  0
    7.7690   49.6510   56.3800   C 0  0  0  0  0  0  0  0  0  0  0  0
    7.4610   51.0660   54.3070   C 0  0  0  0  0  0  0  0  0  0  0  0
    7.0030   52.0820   54.9990   N 0  0  0  0  0  0  0  0  0  0  0  0
    7.7540   51.1930   53.0390   N 0  0  0  0  0  0  0  0  0  0  0  0
  1  2  2  0  0  0  0
  1  6  1  0  0  0  0
  1  7  1  0  0  0  0
  2  3  1  0  0  0  0
  3  4  2  0  0  0  0
  4  5  1  0  0  0  0
  5  6  2  0  0  0  0
  7  8  2  0  0  0  0
  7  9  1  0  0  0  0
M  END
>  <InstanceId>
1J16_BEN_A_1

>  <ChemCompId>
BEN

>  <PdbId>
1J16

>  <ChainId>
A

>  <ResidueNumber>
1

>  <InsertionCode>


>  <Model>
1

>  <AltIds>


>  <MissingHeavyAtoms>
0

>  <ObservedFormula>
C7 N2

>  <Name>
BENZAMIDINE

>  <SystematicName>
benzenecarboximidamide

>  <Synonyms>


>  <Type>
NON-POLYMER

>  <Formula>
C7 H8 N2

>  <MolecularWeight>
120.152

>  <ModifiedDate>
2011-06-04

>  <Parent>


>  <OneLetterCode>


>  <SubcomponentList>


>  <AmbiguousFlag>
N

>  <InChI>
InChI=1S/C7H8N2/c8-7(9)6-4-2-1-3-5-6/h1-5H,(H3,8,9)

>  <InChIKey>
PXXJHWLDUBFPOL-UHFFFAOYSA-N

>  <SMILES>
[H]/N=C(\c1ccccc1)/N

$$$$
