6EYB_C3Z_A_301
  RCSB PDB08022004353D
Coordinates from PDB:6EYB:A:301 Model:1 without hydrogens
 28 32  0  0  0  0            999 V2000
   65.1030   33.1410   25.6100   C 0  0  0  0  0  0  0  0  0  0  0  0
   65.1050   33.8540   24.4180   C 0  0  0  0  0  0  0  0  0  0  0  0
   66.3170   34.2320   23.7890   C 0  0  0  0  0  0  0  0  0  0  0  0
   65.9630   35.9030   20.5420   C 0  0  0  0  0  0  0  0  0  0  0  0
   67.7310   36.9690   23.4400   C 0  0  0  0  0  0  0  0  0  0  0  0
   69.0900   37.1780   23.1490   C 0  0  0  0  0  0  0  0  0  0  0  0
   69.9280   37.7650   24.1040   C 0  0  0  0  0  0  0  0  0  0  0  0
   69.4170   38.1250   25.3540   C 0  0  0  0  0  0  0  0  0  0  0  0
   68.0660   37.9070   25.6490   C 0  0  0  0  0  0  0  0  0  0  0  0
   67.2200   37.3400   24.6980   C 0  0  0  0  0  0  0  0  0  0  0  0
   68.6440   32.5660   26.3210   C 0  0  0  0  0  0  0  0  0  0  0  0
   70.1180   32.7520   26.0280   C 0  0  0  0  0  0  0  0  0  0  0  0
   70.7860   30.4410   25.2230   C 0  0  0  0  0  0  0  0  0  0  0  0
   71.4180   29.6040   24.2990   C 0  0  0  0  0  0  0  0  0  0  0  0
   67.5400   33.8320   24.3200   C 0  0  0  0  0  0  0  0  0  0  0  0
   66.3190   35.0920   22.5820   C 0  0  0  0  0  0  0  0  0  0  0  0
   65.7020   34.8290   21.3940   C 0  0  0  0  0  0  0  0  0  0  0  0
   66.7020   36.7810   21.1690   N 0  0  0  0  0  0  0  0  0  0  0  0
   66.9190   36.3270   22.4730   N 0  0  0  0  0  0  0  0  0  0  0  0
   63.9330   34.2390   23.8710   O 0  0  0  0  0  0  0  0  0  0  0  0
   66.3480   32.7530   26.1600   C 0  0  0  0  0  0  0  0  0  0  0  0
   67.5620   33.1020   25.5110   C 0  0  0  0  0  0  0  0  0  0  0  0
   68.1080   32.0480   27.4080   N 0  0  0  0  0  0  0  0  0  0  0  0
   66.7200   32.0960   27.3130   N 0  0  0  0  0  0  0  0  0  0  0  0
   70.7190   31.8160   24.9990   C 0  0  0  0  0  0  0  0  0  0  0  0
   72.0010   30.1350   23.1500   C 0  0  0  0  0  0  0  0  0  0  0  0
   71.9580   31.5150   22.9310   C 0  0  0  0  0  0  0  0  0  0  0  0
   71.3280   32.3490   23.8600   C 0  0  0  0  0  0  0  0  0  0  0  0
  4 18  2  0  0  0  0
  4 17  1  0  0  0  0
 18 19  1  0  0  0  0
 17 16  2  0  0  0  0
 19 16  1  0  0  0  0
 19  5  1  0  0  0  0
 16  3  1  0  0  0  0
 27 26  2  0  0  0  0
 27 28  1  0  0  0  0
  6  5  2  0  0  0  0
  6  7  1  0  0  0  0
 26 14  1  0  0  0  0
  5 10  1  0  0  0  0
  3 15  2  0  0  0  0
  3  2  1  0  0  0  0
 28 25  2  0  0  0  0
 20  2  1  0  0  0  0
  7  8  2  0  0  0  0
 14 13  2  0  0  0  0
 15 22  1  0  0  0  0
  2  1  2  0  0  0  0
 10  9  2  0  0  0  0
 25 13  1  0  0  0  0
 25 12  1  0  0  0  0
  8  9  1  0  0  0  0
 22 21  1  0  0  0  0
 22 11  2  0  0  0  0
  1 21  1  0  0  0  0
 12 11  1  0  0  0  0
 21 24  2  0  0  0  0
 11 23  1  0  0  0  0
 24 23  1  0  0  0  0
M  END
>  <InstanceId>
6EYB_C3Z_A_301

>  <ChemCompId>
C3Z

>  <PdbId>
6EYB

>  <ChainId>
A

>  <ResidueNumber>
301

>  <InsertionCode>


>  <Model>
1

>  <AltIds>


>  <MissingHeavyAtoms>
0

>  <ObservedFormula>
C23 N4 O

>  <Name>
3-(phenylmethyl)-5-(2-phenylpyrazol-3-yl)-2~{H}-indazol-6-ol

>  <SystematicName>
3-(phenylmethyl)-5-(2-phenylpyrazol-3-yl)-2~{H}-indazol-6-ol

>  <Synonyms>


>  <Type>
NON-POLYMER

>  <Formula>
C23 H18 N4 O

>  <MolecularWeight>
366.415

>  <ModifiedDate>
2018-05-25

>  <Parent>


>  <OneLetterCode>


>  <SubcomponentList>


>  <AmbiguousFlag>
N

>  <InChI>
InChI=1S/C23H18N4O/c28-23-15-21-18(20(25-26-21)13-16-7-3-1-4-8-16)14-19(23)22-11-12-24-27(22)17-9-5-2-6-10-17/h1-12,14-15,28H,13H2,(H,25,26)

>  <InChIKey>
XBGRZWVCOXMUCW-UHFFFAOYSA-N

>  <SMILES>
c1ccc(cc1)Cc2c3cc(c(cc3n[nH]2)O)c4ccnn4c5ccccc5

$$$$
