1A4W_QWE_H_373
  RCSB PDB08012014333D
Coordinates from PDB:1A4W:H:373 Model:1 without hydrogens
 42 45  0  0  0  0            999 V2000
   17.7350  -17.1780   22.6120   C 0  0  0  0  0  0  0  0  0  0  0  0
   18.5430  -17.3500   21.4620   C 0  0  0  0  0  0  0  0  0  0  0  0
   19.8770  -17.0460   21.5580   C 0  0  0  0  0  0  0  0  0  0  0  0
   20.4010  -16.5660   22.7660   C 0  0  0  0  0  0  0  0  0  0  0  0
   19.6130  -16.3580   23.8930   C 0  0  0  0  0  0  0  0  0  0  0  0
   20.0840  -15.7910   25.0460   C 0  0  0  0  0  0  0  0  0  0  0  0
   19.2410  -15.5680   26.1140   C 0  0  0  0  0  0  0  0  0  0  0  0
   17.8930  -15.9710   26.0280   C 0  0  0  0  0  0  0  0  0  0  0  0
   17.3700  -16.5100   24.8790   C 0  0  0  0  0  0  0  0  0  0  0  0
   18.2050  -16.6890   23.8090   C 0  0  0  0  0  0  0  0  0  0  0  0
   21.3830  -15.2850   25.1040   N 0  0  0  0  0  0  0  0  0  0  0  0
   21.8980  -14.2170   24.2140   C 0  0  0  0  0  0  0  0  0  0  0  0
   22.6350  -16.2130   25.4960   C 0  0  0  0  0  0  0  0  0  0  0  0
   15.9090  -17.5810   22.4170   S 0  0  0  0  0  0  0  0  0  0  0  0
   15.9880  -18.0130   21.0100   O 0  0  0  0  0  0  0  0  0  0  0  0
   14.9980  -18.1910   23.4020   O 0  0  0  0  0  0  0  0  0  0  0  0
   14.8930  -15.9700   22.4850   N 0  0  0  0  0  0  0  0  0  0  0  0
   15.1930  -15.1140   21.2960   C 0  0  0  0  0  0  0  0  0  0  0  0
   16.3070  -14.1670   21.7520   C 0  0  0  0  0  0  0  0  0  0  0  0
   16.2120  -13.7810   22.9140   O 0  0  0  0  0  0  0  0  0  0  0  0
   13.9420  -14.3540   20.8790   C 0  0  0  0  0  0  0  0  0  0  0  0
   13.2320  -13.6860   22.0580   C 0  0  0  0  0  0  0  0  0  0  0  0
   11.8920  -13.1330   21.5950   C 0  0  0  0  0  0  0  0  0  0  0  0
   11.2180  -12.6470   22.7800   N 0  0  0  0  0  0  0  0  0  0  0  0
   11.4570  -11.5540   23.4830   C 0  0  0  0  0  0  0  0  0  0  0  0
   12.3590  -10.6740   23.0450   N 0  0  0  0  0  0  0  0  0  0  0  0
   10.7230  -11.3360   24.5660   N 0  3  0  0  0  0  0  0  0  0  0  0
   17.2800  -13.6920   20.8300   N 0  0  0  0  0  0  0  0  0  0  0  0
   17.0430  -14.0330   19.3270   C 0  0  0  0  0  0  0  0  0  0  0  0
   18.4210  -14.4720   18.8090   C 0  0  0  0  0  0  0  0  0  0  0  0
   19.6100  -13.4170   19.1940   C 0  0  0  0  0  0  0  0  0  0  0  0
   19.6960  -13.0830   20.7650   C 0  0  0  0  0  0  0  0  0  0  0  0
   18.3510  -12.6800   21.3100   C 0  0  0  0  0  0  0  0  0  0  0  0
   16.5930  -13.0140   18.5500   C 0  0  0  0  0  0  0  0  0  0  0  0
   15.9410  -13.4250   17.1790   C 0  0  0  0  0  0  0  0  0  0  0  0
   15.7830  -14.9040   14.4580   S 0  0  0  0  0  0  0  0  0  0  0  0
   17.4880  -11.9220   16.2870   O 0  0  0  0  0  0  0  0  0  0  0  0
   17.0590  -15.5830   13.5080   C 0  0  0  0  0  0  0  0  0  0  0  0
   16.8640  -13.5560   14.7390   C 0  0  0  0  0  0  0  0  0  0  0  0
   16.8250  -12.9030   16.1070   C 0  0  0  0  0  0  0  0  0  0  0  0
   18.1460  -14.7340   13.4510   C 0  0  0  0  0  0  0  0  0  0  0  0
   18.0490  -13.5540   14.1060   N 0  0  0  0  0  0  0  0  0  0  0  0
  1  2  2  0  0  0  0
  1 10  1  0  0  0  0
  1 14  1  0  0  0  0
  2  3  1  0  0  0  0
  3  4  2  0  0  0  0
  4  5  1  0  0  0  0
  5  6  2  0  0  0  0
  5 10  1  0  0  0  0
  6  7  1  0  0  0  0
  6 11  1  0  0  0  0
  7  8  2  0  0  0  0
  8  9  1  0  0  0  0
  9 10  2  0  0  0  0
 11 12  1  0  0  0  0
 11 13  1  0  0  0  0
 14 15  2  0  0  0  0
 14 16  2  0  0  0  0
 17 18  1  0  0  0  0
 18 21  1  0  0  0  0
 18 19  1  0  0  0  0
 21 22  1  0  0  0  0
 22 23  1  0  0  0  0
 23 24  1  0  0  0  0
 24 25  1  0  0  0  0
 25 26  1  0  0  0  0
 25 27  2  0  0  0  0
 19 20  2  0  0  0  0
 28 29  1  0  0  0  0
 28 33  1  0  0  0  0
 29 30  1  0  0  0  0
 29 34  1  0  0  0  0
 30 31  1  0  0  0  0
 31 32  1  0  0  0  0
 32 33  1  0  0  0  0
 34 35  1  0  0  0  0
 36 38  1  0  0  0  0
 36 39  1  0  0  0  0
 37 40  2  0  0  0  0
 38 41  2  0  0  0  0
 39 40  1  0  0  0  0
 39 42  2  0  0  0  0
 41 42  1  0  0  0  0
 14 17  1  0  0  0  0
 19 28  1  0  0  0  0
 35 40  1  0  0  0  0
M  CHG  1  27   1
M  END
>  <InstanceId>
1A4W_QWE_H_373

>  <ChemCompId>
QWE

>  <PdbId>
1A4W

>  <ChainId>
H

>  <ResidueNumber>
373

>  <InsertionCode>


>  <Model>
1

>  <AltIds>


>  <MissingHeavyAtoms>
0

>  <ObservedFormula>
C29 N7 O4 S2

>  <Name>
amino{[(4S)-4-({[5-(dimethylamino)naphthalen-1-yl]sulfonyl}amino)-5-oxo-5-{(2R)-2-[3-oxo-3-(1,3-thiazol-2-yl)propyl]pip eridin-1-yl}pentyl]amino}methaniminium

>  <SystematicName>
[azanyl-[[(4S)-4-[[5-(dimethylamino)naphthalen-1-yl]sulfonylamino]-5-oxo-5-[(2R)-2-[3-oxo-3-(1,3-thiazol-2-yl)propyl]piperidin-1-yl]pentyl]amino]methylidene]azanium

>  <Synonyms>
RWJ-50215

>  <Type>
peptide-like

>  <Formula>
C29 H40 N7 O4 S2

>  <MolecularWeight>
614.802

>  <ModifiedDate>
2020-06-17

>  <Parent>


>  <OneLetterCode>


>  <SubcomponentList>
ANS ARG 5TP

>  <AmbiguousFlag>
N

>  <InChI>
InChI=1S/C29H39N7O4S2/c1-35(2)24-12-5-10-22-21(24)9-6-13-26(22)42(39,40)34-23(11-7-16-33-29(30)31)28(38)36-18-4-3-8-20(36)14-15-25(37)27-32-17-19-41-27/h5-6,9-10,12-13,17,19-20,23,34H,3-4,7-8,11,14-16,18H2,1-2H3,(H4,30,31,33)/p+1/t20-,23+/m1/s1

>  <InChIKey>
KACDHMPRLCAESX-OFNKIYASSA-O

>  <SMILES>
CN(C)c1cccc2c1cccc2S(=O)(=O)N[C@@H](CCCNC(=[NH2+])N)C(=O)N3CCCC[C@@H]3CCC(=O)c4nccs4

$$$$
