6F9V_D0Z_A_702
  RCSB PDB08022004383D
Coordinates from PDB:6F9V:A:702 Model:1 without hydrogens
 40 41  0  0  0  0            999 V2000
   -7.9060  -17.0090  -23.0530   C 0  0  0  0  0  0  0  0  0  0  0  0
   -5.1140  -18.4170  -23.1490   C 0  0  0  0  0  0  0  0  0  0  0  0
   -4.5480  -19.6230  -22.3880   C 0  0  0  0  0  0  0  0  0  0  0  0
   -5.7430  -20.2630  -21.6430   C 0  0  0  0  0  0  0  0  0  0  0  0
   -5.2890  -20.9590  -20.3830   C 0  0  0  0  0  0  0  0  0  0  0  0
   -6.4540  -21.4800  -19.5660   C 0  0  0  0  0  0  0  0  0  0  0  0
   -4.0310  -17.7300  -23.9720   C 0  0  0  0  0  0  0  0  0  0  0  0
   -2.3150  -15.8900  -24.1510   C 0  0  0  0  0  0  0  0  0  0  0  0
   -1.0630  -15.8330  -23.2700   C 0  0  0  0  0  0  0  0  0  0  0  0
    0.0720  -15.3370  -24.1940   C 0  0  0  0  0  0  0  0  0  0  0  0
    1.4460  -15.2150  -23.4980   C 0  0  0  0  0  0  0  0  0  0  0  0
    2.4640  -14.4180  -24.5730   C 0  0  0  0  0  0  0  0  0  0  0  0
    3.3920  -15.3750  -24.9880   C 0  0  0  0  0  0  0  0  0  0  0  0
    3.5580  -16.3440  -23.7180   C 0  0  0  0  0  0  0  0  0  0  0  0
    2.0380  -16.4820  -23.2190   C 0  0  0  0  0  0  0  0  0  0  0  0
    1.3760  -14.2200  -22.3300   C 0  0  0  0  0  0  0  0  0  0  0  0
    2.5260  -13.4610  -20.1990   C 0  0  0  0  0  0  0  0  0  0  0  0
    3.4950  -13.9790  -19.1110   C 0  0  0  0  0  0  0  0  0  0  0  0
    4.5750  -14.9580  -19.5970   C 0  0  0  0  0  0  0  0  0  0  0  0
    5.7980  -14.4940  -20.0220   C 0  0  0  0  0  0  0  0  0  0  0  0
    6.7530  -15.4330  -20.4110   C 0  0  0  0  0  0  0  0  0  0  0  0
    6.4600  -16.7870  -20.3610   C 0  0  0  0  0  0  0  0  0  0  0  0
    5.2360  -17.2370  -19.9140   C 0  0  0  0  0  0  0  0  0  0  0  0
    4.2740  -16.3050  -19.5300   C 0  0  0  0  0  0  0  0  0  0  0  0
    3.1820  -12.2490  -20.8520   C 0  0  0  0  0  0  0  0  0  0  0  0
   -0.7750  -17.2110  -22.6960   C 0  0  0  0  0  0  0  0  0  0  0  0
   -6.0830  -18.9630  -24.0750   N 0  0  0  0  0  0  0  0  0  0  0  0
   -6.6490  -20.6200  -18.4100   N 0  0  0  0  0  0  0  0  0  0  0  0
   -3.3620  -16.5690  -23.4050   N 0  0  0  0  0  0  0  0  0  0  0  0
    2.3510  -14.4140  -21.2860   N 0  0  0  0  0  0  0  0  0  0  0  0
   -6.9530  -17.0950  -25.5670   O 0  0  0  0  0  0  0  0  0  0  0  0
   -8.4020  -18.8320  -25.0630   O 0  0  0  0  0  0  0  0  0  0  0  0
   -3.7200  -18.1620  -25.0320   O 0  0  0  0  0  0  0  0  0  0  0  0
    0.6590  -13.2470  -22.2650   O 0  0  0  0  0  0  0  0  0  0  0  0
    7.4460  -17.7290  -20.7570   O 0  0  0  0  0  0  0  0  0  0  0  0
    3.1030  -11.1320  -20.2790   O 0  0  0  0  0  0  0  0  0  0  0  0
    3.8170  -12.3440  -21.9870   O 0  0  0  0  0  0  0  0  0  0  0  0
   -0.6790  -17.3970  -21.4590   O 0  0  0  0  0  0  0  0  0  0  0  0
   -0.5520  -18.1920  -23.4410   O 0  0  0  0  0  0  0  0  0  0  0  0
   -7.3990  -17.9310  -24.4680   S 0  0  0  0  0  0  0  0  0  0  0  0
 32 40  2  0  0  0  0
  1 40  1  0  0  0  0
 40 31  2  0  0  0  0
 40 27  1  0  0  0  0
 27  2  1  0  0  0  0
 28  6  1  0  0  0  0
 33  7  2  0  0  0  0
  2  7  1  0  0  0  0
  2  3  1  0  0  0  0
  6  5  1  0  0  0  0
  4  5  1  0  0  0  0
  4  3  1  0  0  0  0
  7 29  1  0  0  0  0
 29  8  1  0  0  0  0
  8  9  1  0  0  0  0
 39 26  2  0  0  0  0
  9 26  1  0  0  0  0
  9 10  1  0  0  0  0
 26 38  1  0  0  0  0
 10 11  1  0  0  0  0
 11 12  1  0  0  0  0
 11 15  1  0  0  0  0
 11 16  1  0  0  0  0
 34 16  2  0  0  0  0
 12 13  1  0  0  0  0
 15 14  1  0  0  0  0
 13 14  1  0  0  0  0
 16 30  1  0  0  0  0
 30 17  1  0  0  0  0
 17 25  1  0  0  0  0
 17 18  1  0  0  0  0
 37 25  2  0  0  0  0
 25 36  1  0  0  0  0
 18 19  1  0  0  0  0
 20 19  2  0  0  0  0
 20 21  1  0  0  0  0
 19 24  1  0  0  0  0
 21 22  2  0  0  0  0
 24 23  2  0  0  0  0
 22 23  1  0  0  0  0
 22 35  1  0  0  0  0
M  END
>  <InstanceId>
6F9V_D0Z_A_702

>  <ChemCompId>
D0Z

>  <PdbId>
6F9V

>  <ChainId>
A

>  <ResidueNumber>
702

>  <InsertionCode>


>  <Model>
1

>  <AltIds>


>  <MissingHeavyAtoms>
0

>  <ObservedFormula>
C26 N4 O9 S

>  <Name>
Sampatrilat

>  <SystematicName>
(2~{S})-2-[[[(2~{S})-6-azanyl-2-(methylsulfonylamino)hexanoyl]amino]methyl]-3-[1-[[(2~{S})-3-(4-hydroxyphenyl)-1-oxidanyl-1-oxidanylidene-propan-2-yl]carbamoyl]cyclopentyl]propanoic acid

>  <Synonyms>


>  <Type>
NON-POLYMER

>  <Formula>
C26 H40 N4 O9 S

>  <MolecularWeight>
584.682

>  <ModifiedDate>
2018-03-02

>  <Parent>


>  <OneLetterCode>


>  <SubcomponentList>


>  <AmbiguousFlag>
N

>  <InChI>
InChI=1S/C26H40N4O9S/c1-40(38,39)30-20(6-2-5-13-27)22(32)28-16-18(23(33)34)15-26(11-3-4-12-26)25(37)29-21(24(35)36)14-17-7-9-19(31)10-8-17/h7-10,18,20-21,30-31H,2-6,11-16,27H2,1H3,(H,28,32)(H,29,37)(H,33,34)(H,35,36)/t18-,20-,21-/m0/s1

>  <InChIKey>
LPUDGHQMOAHMMF-JBACZVJFSA-N

>  <SMILES>
CS(=O)(=O)N[C@@H](CCCCN)C(=O)NC[C@H](CC1(CCCC1)C(=O)N[C@@H](Cc2ccc(cc2)O)C(=O)O)C(=O)O

$$$$
