2VZR_GCU_A_1129
  RCSB PDB08012018053D
Coordinates from PDB:2VZR:A:1129 Model:1 without hydrogens
 13 13  0  0  0  0            999 V2000
   18.1230    7.6630   54.1910   C 0  0  0  0  0  0  0  0  0  0  0  0
   18.9430    6.6720   53.3530   C 0  0  0  0  0  0  0  0  0  0  0  0
   19.1000    7.1960   51.9290   C 0  0  0  0  0  0  0  0  0  0  0  0
   17.7280    7.4440   51.3270   C 0  0  0  0  0  0  0  0  0  0  0  0
   16.9280    8.4340   52.1910   C 0  0  0  0  0  0  0  0  0  0  0  0
   15.5060    8.6150   51.6540   C 0  0  0  0  0  0  0  0  0  0  0  0
   18.8820    8.8400   54.3660   O 0  0  0  0  0  0  0  0  0  0  0  0
   20.2170    6.4440   53.9160   O 0  0  0  0  0  0  0  0  0  0  0  0
   19.8240    6.2730   51.1420   O 0  0  0  0  0  0  0  0  0  0  0  0
   17.8760    7.8940   49.9960   O 0  0  0  0  0  0  0  0  0  0  0  0
   16.8800    7.9730   53.5480   O 0  0  0  0  0  0  0  0  0  0  0  0
   15.3140    8.8920   50.4400   O 0  0  0  0  0  0  0  0  0  0  0  0
   14.5580    8.4550   52.4490   O 0  0  0  0  0  0  0  0  0  0  0  0
  1  2  1  0  0  0  0
  1  7  1  0  0  0  0
  1 11  1  0  0  0  0
  2  3  1  0  0  0  0
  2  8  1  0  0  0  0
  3  4  1  0  0  0  0
  3  9  1  0  0  0  0
  4  5  1  0  0  0  0
  4 10  1  0  0  0  0
  5  6  1  0  0  0  0
  5 11  1  0  0  0  0
  6 12  2  0  0  0  0
  6 13  1  0  0  0  0
M  END
>  <InstanceId>
2VZR_GCU_A_1129

>  <ChemCompId>
GCU

>  <PdbId>
2VZR

>  <ChainId>
A

>  <ResidueNumber>
1129

>  <InsertionCode>


>  <Model>
1

>  <AltIds>


>  <MissingHeavyAtoms>
0

>  <ObservedFormula>
C6 O7

>  <Name>
alpha-D-glucopyranuronic acid

>  <SystematicName>
(2S,3S,4S,5R,6S)-3,4,5,6-tetrahydroxyoxane-2-carboxylic acid

>  <Synonyms>
alpha-D-glucuronic acid; D-glucuronic acid; glucuronic acid

>  <Type>
D-saccharide, alpha linking

>  <Formula>
C6 H10 O7

>  <MolecularWeight>
194.139

>  <ModifiedDate>
2020-07-17

>  <Parent>


>  <OneLetterCode>


>  <SubcomponentList>


>  <AmbiguousFlag>
N

>  <InChI>
InChI=1S/C6H10O7/c7-1-2(8)4(5(10)11)13-6(12)3(1)9/h1-4,6-9,12H,(H,10,11)/t1-,2-,3+,4-,6-/m0/s1

>  <InChIKey>
AEMOLEFTQBMNLQ-WAXACMCWSA-N

>  <SMILES>
[C@@H]1([C@@H]([C@H](O[C@@H]([C@@H]1O)O)C(=O)O)O)O

$$$$
