4CL6_7SB_A_501
  RCSB PDB08012021233D
Coordinates from PDB:4CL6:A:501 Model:1 without hydrogens
 19 21  0  0  0  0            999 V2000
  -37.9330   59.9620    0.0660  Cl 0  0  0  0  0  0  0  0  0  0  0  0
  -34.7620   52.4480    9.7560   C 0  0  0  0  0  0  0  0  0  0  0  0
  -35.7930   51.6480    9.9630   C 0  0  0  0  0  0  0  0  0  0  0  0
  -35.1650   53.5430    9.1470   C 0  0  0  0  0  0  0  0  0  0  0  0
  -37.6100   59.9340    2.8780   C 0  0  0  0  0  0  0  0  0  0  0  0
  -37.3710   57.7690    1.8540   C 0  0  0  0  0  0  0  0  0  0  0  0
  -37.3550   59.3680    4.1240   C 0  0  0  0  0  0  0  0  0  0  0  0
  -37.1180   57.1910    3.1130   C 0  0  0  0  0  0  0  0  0  0  0  0
  -36.8550   57.5070    5.5390   C 0  0  0  0  0  0  0  0  0  0  0  0
  -38.5410   54.4140    8.4250   N 0  0  0  0  0  0  0  0  0  0  0  0
  -36.7850   55.2800    7.4840   N 0  0  0  0  0  0  0  0  0  0  0  0
  -38.0350   56.9460    6.2490   N 0  0  0  0  0  0  0  0  0  0  0  0
  -38.9500   55.3490    7.7310   N 0  0  0  0  0  0  0  0  0  0  0  0
  -36.9100   52.3210    9.4230   O 0  0  0  0  0  0  0  0  0  0  0  0
  -37.6130   59.1430    1.7210   C 0  0  0  0  0  0  0  0  0  0  0  0
  -37.1160   58.0010    4.2610   C 0  0  0  0  0  0  0  0  0  0  0  0
  -37.2190   54.3590    8.3480   C 0  0  0  0  0  0  0  0  0  0  0  0
  -36.4700   53.4630    8.9740   C 0  0  0  0  0  0  0  0  0  0  0  0
  -37.9180   55.9200    7.1190   C 0  0  0  0  0  0  0  0  0  0  0  0
  1 15  1  0  0  0  0
  4  2  1  0  0  0  0
  2  3  2  0  0  0  0
 14  3  1  0  0  0  0
  4 18  2  0  0  0  0
 15  5  2  0  0  0  0
  5  7  1  0  0  0  0
 15  6  1  0  0  0  0
  6  8  2  0  0  0  0
  7 16  2  0  0  0  0
  8 16  1  0  0  0  0
 16  9  1  0  0  0  0
  9 12  1  0  0  0  0
 13 10  1  0  0  0  0
 17 10  1  0  0  0  0
 19 11  1  0  0  0  0
 11 17  2  0  0  0  0
 12 19  1  0  0  0  0
 19 13  2  0  0  0  0
 18 14  1  0  0  0  0
 17 18  1  0  0  0  0
M  END
>  <InstanceId>
4CL6_7SB_A_501

>  <ChemCompId>
7SB

>  <PdbId>
4CL6

>  <ChainId>
A

>  <ResidueNumber>
501

>  <InsertionCode>


>  <Model>
1

>  <AltIds>


>  <MissingHeavyAtoms>
0

>  <ObservedFormula>
C13 N4 O Cl

>  <Name>
N-(4-chlorobenzyl)-5-(furan-2-yl)-1H-1,2,4-triazol-3-amine

>  <SystematicName>
N-[(4-chlorophenyl)methyl]-5-(furan-2-yl)-1H-1,2,4-triazol-3-amine

>  <Synonyms>


>  <Type>
non-polymer

>  <Formula>
C13 H11 Cl N4 O

>  <MolecularWeight>
274.706

>  <ModifiedDate>
2015-01-16

>  <Parent>


>  <OneLetterCode>


>  <SubcomponentList>


>  <AmbiguousFlag>
N

>  <InChI>
InChI=1S/C13H11ClN4O/c14-10-5-3-9(4-6-10)8-15-13-16-12(17-18-13)11-2-1-7-19-11/h1-7H,8H2,(H2,15,16,17,18)

>  <InChIKey>
IRHUOSKJHRHZKH-UHFFFAOYSA-N

>  <SMILES>
c1cc(oc1)c2[nH]nc(n2)NCc3ccc(cc3)Cl

$$$$
