6CHP_F0Y_A_201
  RCSB PDB08022004143D
Coordinates from PDB:6CHP:A:201 Model:1 without hydrogens
 32 35  0  0  0  0            999 V2000
   12.5960  164.5850   36.1150   C 0  0  0  0  0  0  0  0  0  0  0  0
   11.9450  163.2960   34.1280   C 0  0  0  0  0  0  0  0  0  0  0  0
   11.1520  161.9960   34.1080   C 0  0  0  0  0  0  0  0  0  0  0  0
   11.9510  165.5530   35.7890   O 0  0  0  0  0  0  0  0  0  0  0  0
    9.3350  159.6970   32.7010   C 0  0  0  0  0  0  0  0  0  0  0  0
    7.3550  160.0800   31.1640   C 0  0  0  0  0  0  0  0  0  0  0  0
    6.2310  159.1420   31.6890   C 0  0  0  0  0  0  0  0  0  0  0  0
    6.2950  157.7990   31.1110   C 0  0  0  0  0  0  0  0  0  0  0  0
    7.9120  162.4950   31.6110   C 0  0  0  0  0  0  0  0  0  0  0  0
    9.5740  163.7940   30.9660   C 0  0  0  0  0  0  0  0  0  0  0  0
   10.6720  164.4350   30.4040   C 0  0  0  0  0  0  0  0  0  0  0  0
   10.9940  165.6930   30.8900   C 0  0  0  0  0  0  0  0  0  0  0  0
   10.2220  166.2730   31.9120   C 0  0  0  0  0  0  0  0  0  0  0  0
   10.5890  167.5970   32.5150   C 0  0  0  0  0  0  0  0  0  0  0  0
    8.8450  164.4190   31.9650   C 0  0  0  0  0  0  0  0  0  0  0  0
   12.7890  160.9720   35.6790   C 0  0  0  0  0  0  0  0  0  0  0  0
   13.5460  162.3070   35.7170   C 0  0  0  0  0  0  0  0  0  0  0  0
    6.3460  156.7510   30.7020   N 0  0  0  0  0  0  0  0  0  0  0  0
    7.1210  161.4090   31.7400   N 0  0  0  0  0  0  0  0  0  0  0  0
    7.8200  163.5890   32.3420   N 0  0  0  0  0  0  0  0  0  0  0  0
    9.1460  165.6480   32.4320   N 0  0  0  0  0  0  0  0  0  0  0  0
    8.9540  162.5760   30.7480   N 0  0  0  0  0  0  0  0  0  0  0  0
    8.7350  159.5080   31.4600   C 0  0  0  0  0  0  0  0  0  0  0  0
    9.4160  158.7690   30.4990   C 0  0  0  0  0  0  0  0  0  0  0  0
   10.6680  158.2320   30.7800   C 0  0  0  0  0  0  0  0  0  0  0  0
   11.2520  158.4380   32.0240   C 0  0  0  0  0  0  0  0  0  0  0  0
   10.5960  159.1790   32.9980   C 0  0  0  0  0  0  0  0  0  0  0  0
   11.2470  159.4700   34.3290   C 0  0  0  0  0  0  0  0  0  0  0  0
   12.0480  160.7800   34.3570   C 0  0  0  0  0  0  0  0  0  0  0  0
   12.6710  163.4460   35.3950   N 0  0  0  0  0  0  0  0  0  0  0  0
   13.3470  164.5110   37.2260   O 0  0  0  0  0  0  0  0  0  0  0  0
   13.5830  165.7690   37.9030   C 0  0  0  0  0  0  0  0  0  0  0  0
 32 31  1  0  0  0  0
 17 30  1  0  0  0  0
 17 16  1  0  0  0  0
 31  1  1  0  0  0  0
 30  1  1  0  0  0  0
 30  2  1  0  0  0  0
  1  4  2  0  0  0  0
 16 29  1  0  0  0  0
  2  3  1  0  0  0  0
 29  3  1  0  0  0  0
 29 28  1  0  0  0  0
 12 11  2  0  0  0  0
 12 13  1  0  0  0  0
 14 13  1  0  0  0  0
 11 10  1  0  0  0  0
 28 27  1  0  0  0  0
 13 21  2  0  0  0  0
 26 27  2  0  0  0  0
 26 25  1  0  0  0  0
 27  5  1  0  0  0  0
 25 24  2  0  0  0  0
 10 15  2  0  0  0  0
 10 22  1  0  0  0  0
 21 15  1  0  0  0  0
 15 20  1  0  0  0  0
 22  9  2  0  0  0  0
  5 23  2  0  0  0  0
 24 23  1  0  0  0  0
 23  6  1  0  0  0  0
 20  9  1  0  0  0  0
  9 19  1  0  0  0  0
  6 19  1  0  0  0  0
  6  7  1  0  0  0  0
  7  8  1  0  0  0  0
  8 18  3  0  0  0  0
M  END
>  <InstanceId>
6CHP_F0Y_A_201

>  <ChemCompId>
F0Y

>  <PdbId>
6CHP

>  <ChainId>
A

>  <ResidueNumber>
201

>  <InsertionCode>


>  <Model>
1

>  <AltIds>


>  <MissingHeavyAtoms>
0

>  <ObservedFormula>
C24 N6 O2

>  <Name>
methyl 4-[(3-{(1R)-2-cyano-1-[(5-methyl-3H-imidazo[4,5-b]pyridin-2-yl)amino]ethyl}phenyl)methyl]piperidine-1-carboxylate

>  <SystematicName>
methyl 4-[[3-[(1~{R})-2-cyano-1-[(5-methyl-3~{H}-imidazo[4,5-b]pyridin-2-yl)amino]ethyl]phenyl]methyl]piperidine-1-carboxylate

>  <Synonyms>


>  <Type>
NON-POLYMER

>  <Formula>
C24 H28 N6 O2

>  <MolecularWeight>
432.518

>  <ModifiedDate>
2018-03-29

>  <Parent>


>  <OneLetterCode>


>  <SubcomponentList>


>  <AmbiguousFlag>
N

>  <InChI>
InChI=1S/C24H28N6O2/c1-16-6-7-21-22(26-16)29-23(28-21)27-20(8-11-25)19-5-3-4-18(15-19)14-17-9-12-30(13-10-17)24(31)32-2/h3-7,15,17,20H,8-10,12-14H2,1-2H3,(H2,26,27,28,29)/t20-/m1/s1

>  <InChIKey>
NAKOGAFXAQIHDB-HXUWFJFHSA-N

>  <SMILES>
Cc1ccc2c(n1)[nH]c(n2)N[C@H](CC#N)c3cccc(c3)CC4CCN(CC4)C(=O)OC

$$$$
