4KXB_BES_A_1017
  RCSB PDB08012022193D
Coordinates from PDB:4KXB:A:1017 Model:1 without hydrogens
 22 22  0  0  0  0            999 V2000
   -9.9300   38.6770   44.7080   N 0  0  0  0  0  0  0  0  0  0  0  0
  -10.9390   38.8690   43.6850   C 0  0  0  0  0  0  0  0  0  0  0  0
  -12.3350   38.9540   44.2950   C 0  0  0  0  0  0  0  0  0  0  0  0
  -12.7730   40.3920   44.4410   C 0  0  0  0  0  0  0  0  0  0  0  0
  -13.2990   41.0770   43.3530   C 0  0  0  0  0  0  0  0  0  0  0  0
  -12.6550   41.0360   45.6700   C 0  0  0  0  0  0  0  0  0  0  0  0
  -13.7010   42.4040   43.4970   C 0  0  0  0  0  0  0  0  0  0  0  0
  -13.0540   42.3650   45.8120   C 0  0  0  0  0  0  0  0  0  0  0  0
  -13.5820   43.0540   44.7230   C 0  0  0  0  0  0  0  0  0  0  0  0
  -10.8520   37.7070   42.7110   C 0  0  0  0  0  0  0  0  0  0  0  0
   -9.5030   37.2150   42.7190   O 0  0  0  0  0  0  0  0  0  0  0  0
  -11.2530   38.1880   41.3460   C 0  0  0  0  0  0  0  0  0  0  0  0
  -10.6060   39.0440   40.7930   O 0  0  0  0  0  0  0  0  0  0  0  0
  -12.3320   37.6560   40.7860   N 0  0  0  0  0  0  0  0  0  0  0  0
  -12.9010   38.1710   39.5570   C 0  0  0  0  0  0  0  0  0  0  0  0
  -12.7630   37.1410   38.4390   C 0  0  0  0  0  0  0  0  0  0  0  0
  -11.4090   37.2180   37.7350   C 0  0  0  0  0  0  0  0  0  0  0  0
  -11.2700   36.0930   36.7200   C 0  0  0  0  0  0  0  0  0  0  0  0
  -11.1810   38.5580   37.0450   C 0  0  0  0  0  0  0  0  0  0  0  0
  -14.3300   38.5840   39.7460   C 0  0  0  0  0  0  0  0  0  0  0  0
  -14.8390   38.4160   40.8730   O 0  0  0  0  0  0  0  0  0  0  0  0
  -14.9570   39.0870   38.7850   O 0  0  0  0  0  0  0  0  0  0  0  0
  1  2  1  0  0  0  0
  2  3  1  0  0  0  0
  2 10  1  0  0  0  0
  3  4  1  0  0  0  0
  4  5  2  0  0  0  0
  4  6  1  0  0  0  0
  5  7  1  0  0  0  0
  6  8  2  0  0  0  0
  7  9  2  0  0  0  0
  8  9  1  0  0  0  0
 10 11  1  0  0  0  0
 10 12  1  0  0  0  0
 12 13  2  0  0  0  0
 12 14  1  0  0  0  0
 14 15  1  0  0  0  0
 15 16  1  0  0  0  0
 15 20  1  0  0  0  0
 16 17  1  0  0  0  0
 17 18  1  0  0  0  0
 17 19  1  0  0  0  0
 20 21  1  0  0  0  0
 20 22  2  0  0  0  0
M  END
>  <InstanceId>
4KXB_BES_A_1017

>  <ChemCompId>
BES

>  <PdbId>
4KXB

>  <ChainId>
A

>  <ResidueNumber>
1017

>  <InsertionCode>


>  <Model>
1

>  <AltIds>


>  <MissingHeavyAtoms>
0

>  <ObservedFormula>
C16 N2 O4

>  <Name>
2-(3-AMINO-2-HYDROXY-4-PHENYL-BUTYRYLAMINO)-4-METHYL-PENTANOIC ACID

>  <SystematicName>
(2S)-2-[[(2S,3R)-3-amino-2-hydroxy-4-phenyl-butanoyl]amino]-4-methyl-pentanoic acid

>  <Synonyms>
BESTATIN

>  <Type>
NON-POLYMER

>  <Formula>
C16 H24 N2 O4

>  <MolecularWeight>
308.373

>  <ModifiedDate>
2020-06-17

>  <Parent>


>  <OneLetterCode>


>  <SubcomponentList>


>  <AmbiguousFlag>
N

>  <InChI>
InChI=1S/C16H24N2O4/c1-10(2)8-13(16(21)22)18-15(20)14(19)12(17)9-11-6-4-3-5-7-11/h3-7,10,12-14,19H,8-9,17H2,1-2H3,(H,18,20)(H,21,22)/t12-,13+,14+/m1/s1

>  <InChIKey>
VGGGPCQERPFHOB-RDBSUJKOSA-N

>  <SMILES>
CC(C)C[C@@H](C(=O)O)NC(=O)[C@H]([C@@H](Cc1ccccc1)N)O

$$$$
