5UMY_TNN_A_201
  RCSB PDB08022003143D
Coordinates from PDB:5UMY:A:201 Model:1 without hydrogens
 36 41  0  0  0  0            999 V2000
    0.1390    7.7020  -12.9060   C 0  0  0  0  0  0  0  0  0  0  0  0
    0.6560    6.5250  -13.7700   C 0  0  0  0  0  0  0  0  0  0  0  0
    0.6240    5.3020  -12.9550   O 0  0  0  0  0  0  0  0  0  0  0  0
   -0.0630    6.3040  -15.0710   C 0  0  0  0  0  0  0  0  0  0  0  0
    0.5280    6.8740  -16.1390   O 0  0  0  0  0  0  0  0  0  0  0  0
    0.2560    5.5120  -16.3350   C 0  0  0  0  0  0  0  0  0  0  0  0
   -0.8060    5.1210  -17.2650   C 0  0  0  0  0  0  0  0  0  0  0  0
   -0.5750    4.1730  -18.2790   C 0  0  0  0  0  0  0  0  0  0  0  0
   -1.5910    3.7940  -19.1460   C 0  0  0  0  0  0  0  0  0  0  0  0
   -1.3540    2.8810  -20.1230   O 0  0  0  0  0  0  0  0  0  0  0  0
   -2.8740    4.3230  -19.0630   C 0  0  0  0  0  0  0  0  0  0  0  0
   -3.8800    3.9030  -19.9650   C 0  0  0  0  0  0  0  0  0  0  0  0
   -3.6280    3.0700  -20.8270   O 0  0  0  0  0  0  0  0  0  0  0  0
   -5.1760    4.4290  -19.8590   C 0  0  0  0  0  0  0  0  0  0  0  0
   -6.2040    4.0200  -20.7500   C 0  0  0  0  0  0  0  0  0  0  0  0
   -7.5100    4.5570  -20.6460   C 0  0  0  0  0  0  0  0  0  0  0  0
   -7.7830    5.4960  -19.6250   C 0  0  0  0  0  0  0  0  0  0  0  0
   -8.9710    6.1380  -19.3890   O 0  0  0  0  0  0  0  0  0  0  0  0
  -10.2340    5.6280  -19.8860   C 0  0  0  0  0  0  0  0  0  0  0  0
   -6.7620    5.8870  -18.7450   C 0  0  0  0  0  0  0  0  0  0  0  0
   -7.0700    6.8480  -17.7960   O 0  0  0  0  0  0  0  0  0  0  0  0
   -5.4540    5.3740  -18.8340   C 0  0  0  0  0  0  0  0  0  0  0  0
   -4.4500    5.8100  -17.9530   C 0  0  0  0  0  0  0  0  0  0  0  0
   -4.7200    6.6640  -17.0930   O 0  0  0  0  0  0  0  0  0  0  0  0
   -3.1470    5.2750  -18.0480   C 0  0  0  0  0  0  0  0  0  0  0  0
   -2.1120    5.6590  -17.1600   C 0  0  0  0  0  0  0  0  0  0  0  0
   -2.3470    6.5920  -16.1420   N 0  0  0  0  0  0  0  0  0  0  0  0
   -1.6400    6.4670  -14.8380   C 0  0  0  0  0  0  0  0  0  0  0  0
   -2.1790    5.3400  -14.1500   C 0  0  0  0  0  0  0  0  0  0  0  0
   -2.3380    4.3880  -13.7500   C 0  0  0  0  0  0  0  0  0  0  0  0
   -2.4220    3.0020  -13.2740   C 0  0  0  0  0  0  0  0  0  0  0  0
   -1.4680    2.1080  -13.6670   C 0  0  0  0  0  0  0  0  0  0  0  0
   -0.4180    2.7090  -14.5000   C 0  0  0  0  0  0  0  0  0  0  0  0
    0.3240    3.2920  -15.1260   C 0  0  0  0  0  0  0  0  0  0  0  0
    1.1910    4.3090  -15.9030   C 0  0  0  0  0  0  0  0  0  0  0  0
    1.9190    3.7850  -16.9430   O 0  0  0  0  0  0  0  0  0  0  0  0
  1  2  1  0  0  0  0
  2  3  1  0  0  0  0
  2  4  1  0  0  0  0
  4  5  1  0  0  0  0
  4  6  1  0  0  0  0
  4 28  1  0  0  0  0
  5  6  1  0  0  0  0
  6  7  1  0  0  0  0
  6 35  1  0  0  0  0
  7  8  2  0  0  0  0
  7 26  1  0  0  0  0
  8  9  1  0  0  0  0
  9 10  1  0  0  0  0
  9 11  2  0  0  0  0
 11 12  1  0  0  0  0
 11 25  1  0  0  0  0
 12 13  2  0  0  0  0
 12 14  1  0  0  0  0
 14 15  2  0  0  0  0
 14 22  1  0  0  0  0
 15 16  1  0  0  0  0
 16 17  2  0  0  0  0
 17 18  1  0  0  0  0
 17 20  1  0  0  0  0
 18 19  1  0  0  0  0
 20 21  1  0  0  0  0
 20 22  2  0  0  0  0
 22 23  1  0  0  0  0
 23 24  2  0  0  0  0
 23 25  1  0  0  0  0
 25 26  2  0  0  0  0
 26 27  1  0  0  0  0
 27 28  1  0  0  0  0
 28 29  1  0  0  0  0
 30 31  1  0  0  0  0
 31 32  2  0  0  0  0
 32 33  1  0  0  0  0
 34 35  1  0  0  0  0
 35 36  1  0  0  0  0
 29 30  3  0  0  0  0
 33 34  3  0  0  0  0
M  END
>  <InstanceId>
5UMY_TNN_A_201

>  <ChemCompId>
TNN

>  <PdbId>
5UMY

>  <ChainId>
A

>  <ResidueNumber>
201

>  <InsertionCode>


>  <Model>
1

>  <AltIds>


>  <MissingHeavyAtoms>
0

>  <ObservedFormula>
C27 N O8

>  <Name>
(1aS,11S,11aR,14Z,18R)-3,8,18-trihydroxy-11a-[(1R)-1-hydroxyethyl]-7-methoxy-11,11a-dihydro-4H-11,1a-hept[3]ene[1,5]diynonaphtho[2,3-h]oxireno[c]quinoline-4,9(10H)-dione

>  <SystematicName>


>  <Synonyms>
tiancimycin

>  <Type>
NON-POLYMER

>  <Formula>
C27 H19 N O8

>  <MolecularWeight>
485.442

>  <ModifiedDate>
2018-06-29

>  <Parent>


>  <OneLetterCode>


>  <SubcomponentList>


>  <AmbiguousFlag>
N

>  <InChI>
InChI=1S/C27H19NO8/c1-12(29)26-17-7-5-3-4-6-8-18(31)27(26,36-26)14-11-15(30)20-21(22(14)28-17)25(34)19-13(23(20)32)9-10-16(35-2)24(19)33/h3-4,9-12,17-18,28-31,33H,1-2H3/b4-3-/t12-,17+,18-,26+,27+/m1/s1

>  <InChIKey>
DJOMZYYFFHCVSQ-UBZKRVARSA-N

>  <SMILES>
C[C@H]([C@]12[C@@H]3C#C/C=C\C#C[C@H]([C@@]1(O2)c4cc(c5c(c4N3)C(=O)c6c(ccc(c6O)OC)C5=O)O)O)O

$$$$
