3P5L_IT5_A_263
  RCSB PDB08012020063D
Coordinates from PDB:3P5L:A:263 Model:1 without hydrogens
 17 18  0  0  0  0            999 V2000
   -4.6910    4.1960   10.8940   N 0  0  0  0  0  0  0  0  0  0  0  0
   -5.2930    2.5690   14.8150   N 0  0  0  0  0  0  0  0  0  0  0  0
   -4.9140    0.1470   15.9500   S 0  0  0  0  0  0  0  0  0  0  0  0
   -7.2240    1.8800   16.6470   S 0  0  0  0  0  0  0  0  0  0  0  0
   -4.4160    4.3790   11.9910   C 0  0  0  0  0  0  0  0  0  0  0  0
   -1.1950    7.9350   13.6880   C 0  0  0  0  0  0  0  0  0  0  0  0
   -1.0450    6.9260   12.6740   C 0  0  0  0  0  0  0  0  0  0  0  0
   -2.2550    7.8440   14.6250   C 0  0  0  0  0  0  0  0  0  0  0  0
   -1.9570    5.8840   12.6210   C 0  0  0  0  0  0  0  0  0  0  0  0
   -3.1830    6.7990   14.5820   C 0  0  0  0  0  0  0  0  0  0  0  0
   -6.1170    3.7260   14.4730   C 0  0  0  0  0  0  0  0  0  0  0  0
   -4.2210    2.2350   13.9030   C 0  0  0  0  0  0  0  0  0  0  0  0
   -5.2580    4.9220   14.2010   C 0  0  0  0  0  0  0  0  0  0  0  0
   -3.3410    3.4160   13.9020   C 0  0  0  0  0  0  0  0  0  0  0  0
   -5.6800    1.7120   15.8590   C 0  0  0  0  0  0  0  0  0  0  0  0
   -3.0460    5.8060   13.5610   C 0  0  0  0  0  0  0  0  0  0  0  0
   -4.0430    4.6290   13.4630   C 0  0  0  0  0  0  0  0  0  0  0  0
  1  5  3  0  0  0  0
 12  2  1  0  0  0  0
 11  2  1  0  0  0  0
  2 15  1  0  0  0  0
 15  3  2  0  0  0  0
 15  4  1  0  0  0  0
  5 17  1  0  0  0  0
  7  6  2  0  0  0  0
  6  8  1  0  0  0  0
  9  7  1  0  0  0  0
 10  8  2  0  0  0  0
  9 16  2  0  0  0  0
 16 10  1  0  0  0  0
 13 11  1  0  0  0  0
 14 12  1  0  0  0  0
 17 13  1  0  0  0  0
 17 14  1  0  0  0  0
 17 16  1  0  0  0  0
M  END
>  <InstanceId>
3P5L_IT5_A_263

>  <ChemCompId>
IT5

>  <PdbId>
3P5L

>  <ChainId>
A

>  <ResidueNumber>
263

>  <InsertionCode>


>  <Model>
1

>  <AltIds>


>  <MissingHeavyAtoms>
0

>  <ObservedFormula>
C13 N2 S2

>  <Name>
4-cyano-4-phenylpiperidine-1-carbodithioic acid

>  <SystematicName>
4-cyano-4-phenyl-piperidine-1-carbodithioic acid

>  <Synonyms>


>  <Type>
NON-POLYMER

>  <Formula>
C13 H14 N2 S2

>  <MolecularWeight>
262.394

>  <ModifiedDate>
2011-10-14

>  <Parent>


>  <OneLetterCode>


>  <SubcomponentList>


>  <AmbiguousFlag>
N

>  <InChI>
InChI=1S/C13H14N2S2/c14-10-13(11-4-2-1-3-5-11)6-8-15(9-7-13)12(16)17/h1-5H,6-9H2,(H,16,17)

>  <InChIKey>
GPPHSVWKEUXGQQ-UHFFFAOYSA-N

>  <SMILES>
c1ccc(cc1)C2(CCN(CC2)C(=S)S)C#N

$$$$
