5EEN_5OG_B_804
  RCSB PDB08022001133D
Coordinates from PDB:5EEN:B:804 Model:1 without hydrogens
 22 23  0  0  0  0            999 V2000
   28.3030   98.2600   28.4070   O 0  0  0  0  0  0  0  0  0  0  0  0
   27.7090   98.8410   29.2420   C 0  0  0  0  0  0  0  0  0  0  0  0
   26.2840   98.7420   29.3640   N 0  0  0  0  0  0  0  0  0  0  0  0
   25.6580   97.9840   28.4970   O 0  0  0  0  0  0  0  0  0  0  0  0
   28.3390   99.7190   30.2840   C 0  0  0  0  0  0  0  0  0  0  0  0
   29.5380   99.4540   30.7560   C 0  0  0  0  0  0  0  0  0  0  0  0
   30.1800   99.9720   31.9680   C 0  0  0  0  0  0  0  0  0  0  0  0
   31.3560   99.4140   32.4460   C 0  0  0  0  0  0  0  0  0  0  0  0
   29.6630  101.0420   32.7010   C 0  0  0  0  0  0  0  0  0  0  0  0
   30.3030  101.5010   33.8430   C 0  0  0  0  0  0  0  0  0  0  0  0
   31.4720  100.9130   34.2780   C 0  0  0  0  0  0  0  0  0  0  0  0
   32.0080   99.8310   33.5760   C 0  0  0  0  0  0  0  0  0  0  0  0
   33.5290   99.1400   34.1640   S 0  0  0  0  0  0  0  0  0  0  0  0
   33.3760   98.3310   35.5670   O 0  0  0  0  0  0  0  0  0  0  0  0
   33.9750   97.8910   33.2500   O 0  0  0  0  0  0  0  0  0  0  0  0
   34.7950  100.1640   34.1440   N 0  0  0  0  0  0  0  0  0  0  0  0
   35.0470  101.1380   33.1600   C 0  0  0  0  0  0  0  0  0  0  0  0
   35.7410  100.8250   31.9730   C 0  0  0  0  0  0  0  0  0  0  0  0
   35.9560  101.7860   31.0100   C 0  0  0  0  0  0  0  0  0  0  0  0
   35.4750  103.0750   31.1720   C 0  0  0  0  0  0  0  0  0  0  0  0
   34.7720  103.3880   32.3170   C 0  0  0  0  0  0  0  0  0  0  0  0
   34.5500  102.4410   33.2930   C 0  0  0  0  0  0  0  0  0  0  0  0
  1  2  2  0  0  0  0
  4  3  1  0  0  0  0
  2  3  1  0  0  0  0
  2  5  1  0  0  0  0
  5  6  2  0  0  0  0
  6  7  1  0  0  0  0
 19 20  2  0  0  0  0
 19 18  1  0  0  0  0
 20 21  1  0  0  0  0
 18 17  2  0  0  0  0
  7  8  2  0  0  0  0
  7  9  1  0  0  0  0
  8 12  1  0  0  0  0
 21 22  2  0  0  0  0
  9 10  2  0  0  0  0
 15 13  2  0  0  0  0
 17 22  1  0  0  0  0
 17 16  1  0  0  0  0
 12 13  1  0  0  0  0
 12 11  2  0  0  0  0
 10 11  1  0  0  0  0
 16 13  1  0  0  0  0
 13 14  2  0  0  0  0
M  END
>  <InstanceId>
5EEN_5OG_B_804

>  <ChemCompId>
5OG

>  <PdbId>
5EEN

>  <ChainId>
B

>  <ResidueNumber>
804

>  <InsertionCode>


>  <Model>
1

>  <AltIds>


>  <MissingHeavyAtoms>
0

>  <ObservedFormula>
C15 N2 O4 S

>  <Name>
Belinostat

>  <SystematicName>
(~{E})-~{N}-oxidanyl-3-[3-(phenylsulfamoyl)phenyl]prop-2-enamide

>  <Synonyms>


>  <Type>
NON-POLYMER

>  <Formula>
C15 H14 N2 O4 S

>  <MolecularWeight>
318.348

>  <ModifiedDate>
2016-07-22

>  <Parent>


>  <OneLetterCode>


>  <SubcomponentList>


>  <AmbiguousFlag>
N

>  <InChI>
InChI=1S/C15H14N2O4S/c18-15(16-19)10-9-12-5-4-8-14(11-12)22(20,21)17-13-6-2-1-3-7-13/h1-11,17,19H,(H,16,18)/b10-9+

>  <InChIKey>
NCNRHFGMJRPRSK-MDZDMXLPSA-N

>  <SMILES>
c1ccc(cc1)NS(=O)(=O)c2cccc(c2)/C=C/C(=O)NO

$$$$
