1STC_STU_E_351
  RCSB PDB08012015583D
Coordinates from PDB:1STC:E:351 Model:1 without hydrogens
 35 42  0  0  0  0            999 V2000
    6.0710   25.5490   30.5820   O 0  0  0  0  0  0  0  0  0  0  0  0
    6.6030   26.7220   29.9550   C 0  0  0  0  0  0  0  0  0  0  0  0
    6.2200   26.8090   28.4760   C 0  0  0  0  0  0  0  0  0  0  0  0
    5.3780   25.6340   27.9950   C 0  0  0  0  0  0  0  0  0  0  0  0
    5.9480   24.2960   28.4550   C 0  0  0  0  0  0  0  0  0  0  0  0
    6.2610   24.2550   29.9760   C 0  0  0  0  0  0  0  0  0  0  0  0
    5.0950   23.5360   30.6640   C 0  0  0  0  0  0  0  0  0  0  0  0
    7.5830   23.6680   30.3550   N 0  0  0  0  0  0  0  0  0  0  0  0
    8.7390   24.4230   30.5150   C 0  0  0  0  0  0  0  0  0  0  0  0
    8.9580   25.8320   30.4240   C 0  0  0  0  0  0  0  0  0  0  0  0
   10.2790   26.3560   30.4880   C 0  0  0  0  0  0  0  0  0  0  0  0
   11.3820   25.4440   30.6180   C 0  0  0  0  0  0  0  0  0  0  0  0
   11.1610   24.0810   30.7360   C 0  0  0  0  0  0  0  0  0  0  0  0
    9.8490   23.5510   30.6820   C 0  0  0  0  0  0  0  0  0  0  0  0
    9.3380   22.2140   30.6640   C 0  0  0  0  0  0  0  0  0  0  0  0
    7.9380   22.3000   30.4410   C 0  0  0  0  0  0  0  0  0  0  0  0
    7.1890   21.1000   30.2700   C 0  0  0  0  0  0  0  0  0  0  0  0
    7.8530   19.8760   30.2900   C 0  0  0  0  0  0  0  0  0  0  0  0
    9.2370   19.8050   30.5020   C 0  0  0  0  0  0  0  0  0  0  0  0
    9.9880   20.9530   30.6910   C 0  0  0  0  0  0  0  0  0  0  0  0
   12.4490   23.3720   31.0800   C 0  0  0  0  0  0  0  0  0  0  0  0
   13.3760   24.4780   31.1080   N 0  0  0  0  0  0  0  0  0  0  0  0
   12.8320   25.6660   30.8380   C 0  0  0  0  0  0  0  0  0  0  0  0
   13.4450   26.7050   30.8610   O 0  0  0  0  0  0  0  0  0  0  0  0
   10.1550   27.7780   30.2970   C 0  0  0  0  0  0  0  0  0  0  0  0
    8.7700   28.0600   30.1430   C 0  0  0  0  0  0  0  0  0  0  0  0
    8.3210   29.3610   29.8440   C 0  0  0  0  0  0  0  0  0  0  0  0
    9.2830   30.3890   29.7100   C 0  0  0  0  0  0  0  0  0  0  0  0
   10.6470   30.1260   29.8750   C 0  0  0  0  0  0  0  0  0  0  0  0
   11.0950   28.8440   30.1660   C 0  0  0  0  0  0  0  0  0  0  0  0
    8.0480   26.8590   30.2210   N 0  0  0  0  0  0  0  0  0  0  0  0
    7.2630   24.1670   27.8660   O 0  0  0  0  0  0  0  0  0  0  0  0
    7.4290   23.4860   26.6220   C 0  0  0  0  0  0  0  0  0  0  0  0
    5.0230   25.6030   26.5800   N 0  0  0  0  0  0  0  0  0  0  0  0
    3.6090   25.3390   26.3510   C 0  0  0  0  0  0  0  0  0  0  0  0
  1  2  1  0  0  0  0
  1  6  1  0  0  0  0
  2  3  1  0  0  0  0
  2 31  1  0  0  0  0
  3  4  1  0  0  0  0
  4  5  1  0  0  0  0
  4 34  1  0  0  0  0
  5  6  1  0  0  0  0
  5 32  1  0  0  0  0
  6  7  1  0  0  0  0
  6  8  1  0  0  0  0
  8  9  1  0  0  0  0
  8 16  1  0  0  0  0
  9 10  2  0  0  0  0
  9 14  1  0  0  0  0
 10 11  1  0  0  0  0
 10 31  1  0  0  0  0
 11 12  2  0  0  0  0
 11 25  1  0  0  0  0
 12 13  1  0  0  0  0
 12 23  1  0  0  0  0
 13 14  2  0  0  0  0
 13 21  1  0  0  0  0
 14 15  1  0  0  0  0
 15 16  2  0  0  0  0
 15 20  1  0  0  0  0
 16 17  1  0  0  0  0
 17 18  2  0  0  0  0
 18 19  1  0  0  0  0
 19 20  2  0  0  0  0
 21 22  1  0  0  0  0
 22 23  1  0  0  0  0
 23 24  2  0  0  0  0
 25 26  2  0  0  0  0
 25 30  1  0  0  0  0
 26 27  1  0  0  0  0
 26 31  1  0  0  0  0
 27 28  2  0  0  0  0
 28 29  1  0  0  0  0
 29 30  2  0  0  0  0
 32 33  1  0  0  0  0
 34 35  1  0  0  0  0
M  END
>  <InstanceId>
1STC_STU_E_351

>  <ChemCompId>
STU

>  <PdbId>
1STC

>  <ChainId>
E

>  <ResidueNumber>
351

>  <InsertionCode>


>  <Model>
1

>  <AltIds>


>  <MissingHeavyAtoms>
0

>  <ObservedFormula>
C28 N4 O3

>  <Name>
STAUROSPORINE

>  <SystematicName>


>  <Synonyms>


>  <Type>
NON-POLYMER

>  <Formula>
C28 H26 N4 O3

>  <MolecularWeight>
466.531

>  <ModifiedDate>
2011-06-04

>  <Parent>


>  <OneLetterCode>


>  <SubcomponentList>


>  <AmbiguousFlag>
N

>  <InChI>
InChI=1S/C28H26N4O3/c1-28-26(34-3)17(29-2)12-20(35-28)31-18-10-6-4-8-14(18)22-23-16(13-30-27(23)33)21-15-9-5-7-11-19(15)32(28)25(21)24(22)31/h4-11,17,20,26,29H,12-13H2,1-3H3,(H,30,33)/t17-,20-,26-,28+/m1/s1

>  <InChIKey>
HKSZLNNOFSGOKW-FYTWVXJKSA-N

>  <SMILES>
C[C@@]12[C@@H]([C@@H](C[C@@H](O1)n3c4ccccc4c5c3c6n2c7ccccc7c6c8c5C(=O)NC8)NC)OC

$$$$
