3SFG_2TU_A_601
  RCSB PDB08012020273D
Coordinates from PDB:3SFG:A:601 Model:1 without hydrogens
 17 18  0  0  0  0            999 V2000
   45.6260    0.8660   25.8400   N 0  0  0  0  0  0  0  0  0  0  0  0
   45.3410    2.2300   25.9460   C 0  0  0  0  0  0  0  0  0  0  0  0
   46.4400    3.3370   25.1870   S 0  0  0  0  0  0  0  0  0  0  0  0
   44.2350    2.6250   26.6130   N 0  0  0  0  0  0  0  0  0  0  0  0
   43.4120    1.7070   27.1830   C 0  0  0  0  0  0  0  0  0  0  0  0
   42.3900    2.0860   27.8100   O 0  0  0  0  0  0  0  0  0  0  0  0
   43.7000    0.3430   27.0750   C 0  0  0  0  0  0  0  0  0  0  0  0
   44.8330   -0.0650   26.3820   C 0  0  0  0  0  0  0  0  0  0  0  0
   46.8290    0.5220   25.0860   C 0  0  0  0  0  0  0  0  0  0  0  0
   47.5130   -0.7510   25.5630   C 0  0  0  0  0  0  0  0  0  0  0  0
   48.3410   -0.5030   26.6820   O 0  0  0  0  0  0  0  0  0  0  0  0
   48.2480   -1.1930   24.2900   C 0  0  0  0  0  0  0  0  0  0  0  0
   49.4750   -0.4760   24.1710   O 0  0  0  0  0  0  0  0  0  0  0  0
   47.2960   -0.7540   23.1720   C 0  0  0  0  0  0  0  0  0  0  0  0
   46.4590    0.2890   23.7400   O 0  0  0  0  0  0  0  0  0  0  0  0
   46.4120   -1.8440   22.6020   C 0  0  0  0  0  0  0  0  0  0  0  0
   45.4070   -1.3140   21.7380   O 0  0  0  0  0  0  0  0  0  0  0  0
  1  2  1  0  0  0  0
  1  8  1  0  0  0  0
  1  9  1  0  0  0  0
  2  3  2  0  0  0  0
  2  4  1  0  0  0  0
  4  5  1  0  0  0  0
  5  6  2  0  0  0  0
  5  7  1  0  0  0  0
  7  8  2  0  0  0  0
  9 10  1  0  0  0  0
  9 15  1  0  0  0  0
 10 11  1  0  0  0  0
 10 12  1  0  0  0  0
 12 13  1  0  0  0  0
 12 14  1  0  0  0  0
 14 15  1  0  0  0  0
 14 16  1  0  0  0  0
 16 17  1  0  0  0  0
M  END
>  <InstanceId>
3SFG_2TU_A_601

>  <ChemCompId>
2TU

>  <PdbId>
3SFG

>  <ChainId>
A

>  <ResidueNumber>
601

>  <InsertionCode>


>  <Model>
1

>  <AltIds>


>  <MissingHeavyAtoms>
0

>  <ObservedFormula>
C9 N2 O5 S

>  <Name>
1-(beta-D-ribofuranosyl)-2-thioxo-2,3-dihydropyrimidin-4(1H)-one

>  <SystematicName>
1-[(2R,3R,4S,5R)-5-(hydroxymethyl)-3,4-bis(oxidanyl)oxolan-2-yl]-2-sulfanylidene-pyrimidin-4-one

>  <Synonyms>
2-thiouridine

>  <Type>
NON-POLYMER

>  <Formula>
C9 H12 N2 O5 S

>  <MolecularWeight>
260.267

>  <ModifiedDate>
2012-05-04

>  <Parent>


>  <OneLetterCode>


>  <SubcomponentList>


>  <AmbiguousFlag>
N

>  <InChI>
InChI=1S/C9H12N2O5S/c12-3-4-6(14)7(15)8(16-4)11-2-1-5(13)10-9(11)17/h1-2,4,6-8,12,14-15H,3H2,(H,10,13,17)/t4-,6-,7-,8-/m1/s1

>  <InChIKey>
GJTBSTBJLVYKAU-XVFCMESISA-N

>  <SMILES>
C1=CN(C(=S)NC1=O)[C@H]2[C@@H]([C@@H]([C@H](O2)CO)O)O

$$$$
