2ZFT_10U_A_501
  RCSB PDB08012018273D
Coordinates from PDB:2ZFT:A:501 Model:1 without hydrogens
 27 29  0  0  0  0            999 V2000
  -28.4160    0.9120   17.0430   C 0  0  0  0  0  0  0  0  0  0  0  0
  -27.2760    0.8660   17.5140   O 0  0  0  0  0  0  0  0  0  0  0  0
  -29.6090    1.0240   17.9380   C 0  0  0  0  0  0  0  0  0  0  0  0
  -29.3560    0.4470   19.2270   N 0  0  0  0  0  0  0  0  0  0  0  0
  -30.0140   -0.8220   19.5070   C 0  0  0  0  0  0  0  0  0  0  0  0
  -29.0850   -1.6140   20.4560   C 0  0  0  0  0  0  0  0  0  0  0  0
  -29.5930   -3.0660   20.4260   C 0  0  0  0  0  0  0  0  0  0  0  0
  -30.0470   -3.2670   18.9710   C 0  0  0  0  0  0  0  0  0  0  0  0
  -30.3890   -1.8630   18.3810   C 0  0  0  0  0  0  0  0  0  0  0  0
  -28.6490    0.8580   15.7200   N 0  0  0  0  0  0  0  0  0  0  0  0
  -27.6230    0.5070   14.7560   C 0  0  0  0  0  0  0  0  0  0  0  0
  -26.5220    1.4880   14.5720   C 0  0  0  0  0  0  0  0  0  0  0  0
  -26.6450    2.6580   14.8980   O 0  0  0  0  0  0  0  0  0  0  0  0
  -28.4600    0.3900   13.4900   C 0  0  0  0  0  0  0  0  0  0  0  0
  -29.7860    1.1040   13.5950   C 0  0  0  0  0  0  0  0  0  0  0  0
  -29.9720    1.1270   15.1080   C 0  0  0  0  0  0  0  0  0  0  0  0
  -25.3690    1.1760   14.0640   N 0  0  0  0  0  0  0  0  0  0  0  0
  -24.2520    1.9970   13.8110   C 0  0  0  0  0  0  0  0  0  0  0  0
  -23.1560    1.8750   14.7890   C 0  0  0  0  0  0  0  0  0  0  0  0
  -23.2500    2.2580   16.0810   C 0  0  0  0  0  0  0  0  0  0  0  0
  -22.1760    2.1160   16.9550   C 0  0  0  0  0  0  0  0  0  0  0  0
  -20.9650    1.5810   16.5600   C 0  0  0  0  0  0  0  0  0  0  0  0
  -19.8280    1.4440   17.5380   C 0  0  0  0  0  0  0  0  0  0  0  0
  -19.6410    2.3610   18.4870   N 0  0  0  0  0  0  0  0  0  0  0  0
  -19.0210    0.3940   17.4330   N 0  0  0  0  0  0  0  0  0  0  0  0
  -20.8710    1.1840   15.2210   C 0  0  0  0  0  0  0  0  0  0  0  0
  -21.9470    1.3240   14.3340   C 0  0  0  0  0  0  0  0  0  0  0  0
 15 14  1  0  0  0  0
 15 16  1  0  0  0  0
 14 11  1  0  0  0  0
 18 17  1  0  0  0  0
 18 19  1  0  0  0  0
 13 12  2  0  0  0  0
 12 17  1  0  0  0  0
 12 11  1  0  0  0  0
 11 10  1  0  0  0  0
 19 27  2  0  0  0  0
 19 20  1  0  0  0  0
 16 10  1  0  0  0  0
 10  1  1  0  0  0  0
 27 26  1  0  0  0  0
 20 21  2  0  0  0  0
  1  3  1  0  0  0  0
  1  2  2  0  0  0  0
 26 22  2  0  0  0  0
 21 22  1  0  0  0  0
  3  4  1  0  0  0  0
 22 23  1  0  0  0  0
 23 25  1  0  0  0  0
 23 24  2  0  0  0  0
  4  5  1  0  0  0  0
  6  5  1  0  0  0  0
  6  7  1  0  0  0  0
  5  9  1  0  0  0  0
  7  8  1  0  0  0  0
  9  8  1  0  0  0  0
M  END
>  <InstanceId>
2ZFT_10U_A_501

>  <ChemCompId>
10U

>  <PdbId>
2ZFT

>  <ChainId>
A

>  <ResidueNumber>
501

>  <InsertionCode>


>  <Model>
1

>  <AltIds>


>  <MissingHeavyAtoms>
0

>  <ObservedFormula>
C20 N5 O2

>  <Name>
(S)-N-(4-carbamimidoylbenzyl)-1-(2-(cyclopentylamino)ethanoyl)pyrrolidine-2-carboxamide

>  <SystematicName>
(2S)-N-[(4-carbamimidoylphenyl)methyl]-1-[2-(cyclopentylamino)ethanoyl]pyrrolidine-2-carboxamide

>  <Synonyms>
(2S)-1-[cyclopentylamino)acetyl-N-{4-[amino(imino)methyl]benzyl}pyrrolidine-2-carboxamide

>  <Type>
peptide-like

>  <Formula>
C20 H29 N5 O2

>  <MolecularWeight>
371.477

>  <ModifiedDate>
2012-01-05

>  <Parent>


>  <OneLetterCode>


>  <SubcomponentList>
021 PRO 00S

>  <AmbiguousFlag>
N

>  <InChI>
InChI=1S/C20H29N5O2/c21-19(22)15-9-7-14(8-10-15)12-24-20(27)17-6-3-11-25(17)18(26)13-23-16-4-1-2-5-16/h7-10,16-17,23H,1-6,11-13H2,(H3,21,22)(H,24,27)/t17-/m0/s1

>  <InChIKey>
WXYKSWZWRHMJTE-KRWDZBQOSA-N

>  <SMILES>
c1cc(ccc1CNC(=O)[C@@H]2CCCN2C(=O)CNC3CCCC3)C(=N)N

$$$$
