6FO5_DZH_A_201
  RCSB PDB08022004413D
Coordinates from PDB:6FO5:A:201 Model:1 without hydrogens
 37 41  0  0  0  0            999 V2000
   50.3030   -0.9640   -1.7970   C 0  0  0  0  0  0  0  0  0  0  0  0
   57.8680    1.8960    4.8260   C 0  0  0  0  0  0  0  0  0  0  0  0
   52.3080   -1.5860   -0.5420   C 0  0  0  0  0  0  0  0  0  0  0  0
   51.8890   -1.2890    0.7600   C 0  0  0  0  0  0  0  0  0  0  0  0
   55.3940   -0.7150    3.6260   C 0  0  0  0  0  0  0  0  0  0  0  0
   53.4530   -2.3300   -0.7460   C 0  0  0  0  0  0  0  0  0  0  0  0
   54.1640   -2.7720    0.2860   C 0  0  0  0  0  0  0  0  0  0  0  0
   53.7250   -2.5420    1.5780   C 0  0  0  0  0  0  0  0  0  0  0  0
   52.6220   -1.8190    1.8150   C 0  0  0  0  0  0  0  0  0  0  0  0
   56.3750    0.0040    4.4930   C 0  0  0  0  0  0  0  0  0  0  0  0
   57.0230    1.1360    4.0270   C 0  0  0  0  0  0  0  0  0  0  0  0
   51.6130   -1.0490   -1.6480   N 0  0  0  0  0  0  0  0  0  0  0  0
   55.8290   -2.0860    3.2950   N 0  0  0  0  0  0  0  0  0  0  0  0
   49.4750   -1.6320   -0.7690   C 0  0  0  0  0  0  0  0  0  0  0  0
   58.3940    3.3770    7.7240   N 0  0  0  0  0  0  0  0  0  0  0  0
   50.7710   -0.3180    0.9490   C 0  0  0  0  0  0  0  0  0  0  0  0
   49.4120   -0.8530    0.5770   C 0  0  0  0  0  0  0  0  0  0  0  0
   49.7820   -0.4500   -2.7840   O 0  0  0  0  0  0  0  0  0  0  0  0
   54.6710   -3.1610    2.9420   S 0  0  0  0  0  0  0  0  0  0  0  0
   53.8080   -3.2420    4.0600   O 0  0  0  0  0  0  0  0  0  0  0  0
   55.3810   -4.3440    2.4890   O 0  0  0  0  0  0  0  0  0  0  0  0
   58.1420    1.4780    6.1270   C 0  0  0  0  0  0  0  0  0  0  0  0
   57.4940    0.3360    6.5870   C 0  0  0  0  0  0  0  0  0  0  0  0
   56.6460   -0.4320    5.7830   C 0  0  0  0  0  0  0  0  0  0  0  0
   59.0810    2.2700    7.0050   C 0  0  0  0  0  0  0  0  0  0  0  0
   58.3450    4.5940    7.0910   C 0  0  0  0  0  0  0  0  0  0  0  0
   57.8380    3.2370    8.9800   C 0  0  0  0  0  0  0  0  0  0  0  0
   57.1830    4.2590    9.5920   C 0  0  0  0  0  0  0  0  0  0  0  0
   57.0580    5.5440    9.0090   C 0  0  0  0  0  0  0  0  0  0  0  0
   57.6850    5.6050    7.7600   N 0  0  0  0  0  0  0  0  0  0  0  0
   57.8430    2.1100    9.7140   N 0  0  0  0  0  0  0  0  0  0  0  0
   57.1750    2.4690   10.8180   C 0  0  0  0  0  0  0  0  0  0  0  0
   56.7540    3.7300   10.7930   N 0  0  0  0  0  0  0  0  0  0  0  0
   56.4750    6.5320    9.4700   O 0  0  0  0  0  0  0  0  0  0  0  0
   58.8010    4.8050    5.9840   O 0  0  0  0  0  0  0  0  0  0  0  0
   55.8550    4.3910   11.7710   C 0  0  0  0  0  0  0  0  0  0  0  0
   54.4230    4.2740   11.2940   C 0  0  0  0  0  0  0  0  0  0  0  0
 18  1  2  0  0  0  0
  1 12  1  0  0  0  0
  1 14  1  0  0  0  0
 12  3  1  0  0  0  0
 14 17  1  0  0  0  0
  6  3  2  0  0  0  0
  6  7  1  0  0  0  0
  3  4  1  0  0  0  0
  7  8  2  0  0  0  0
 17 16  1  0  0  0  0
  4 16  1  0  0  0  0
  4  9  2  0  0  0  0
  8  9  1  0  0  0  0
  8 19  1  0  0  0  0
 21 19  2  0  0  0  0
 19 13  1  0  0  0  0
 19 20  2  0  0  0  0
 13  5  1  0  0  0  0
  5 10  1  0  0  0  0
 11 10  2  0  0  0  0
 11  2  1  0  0  0  0
 10 24  1  0  0  0  0
  2 22  2  0  0  0  0
 24 23  2  0  0  0  0
 35 26  2  0  0  0  0
 22 23  1  0  0  0  0
 22 25  1  0  0  0  0
 25 15  1  0  0  0  0
 26 15  1  0  0  0  0
 26 30  1  0  0  0  0
 15 27  1  0  0  0  0
 30 29  1  0  0  0  0
 27 28  2  0  0  0  0
 27 31  1  0  0  0  0
 29 34  2  0  0  0  0
 29 28  1  0  0  0  0
 28 33  1  0  0  0  0
 31 32  2  0  0  0  0
 33 32  1  0  0  0  0
 33 36  1  0  0  0  0
 37 36  1  0  0  0  0
M  END
>  <InstanceId>
6FO5_DZH_A_201

>  <ChemCompId>
DZH

>  <PdbId>
6FO5

>  <ChainId>
A

>  <ResidueNumber>
201

>  <InsertionCode>


>  <Model>
1

>  <AltIds>


>  <MissingHeavyAtoms>
0

>  <ObservedFormula>
C25 N6 O5 S

>  <Name>
~{N}-[[4-[[7-ethyl-2,6-bis(oxidanylidene)purin-3-yl]methyl]phenyl]methyl]-2-oxidanylidene-1,3,4,5-tetrahydro-1-benzazepine-7-sulfonamide

>  <SystematicName>
~{N}-[[4-[[7-ethyl-2,6-bis(oxidanylidene)purin-3-yl]methyl]phenyl]methyl]-2-oxidanylidene-1,3,4,5-tetrahydro-1-benzazepine-7-sulfonamide

>  <Synonyms>


>  <Type>
NON-POLYMER

>  <Formula>
C25 H26 N6 O5 S

>  <MolecularWeight>
522.576

>  <ModifiedDate>
2018-06-15

>  <Parent>


>  <OneLetterCode>


>  <SubcomponentList>


>  <AmbiguousFlag>
N

>  <InChI>
InChI=1S/C25H26N6O5S/c1-2-30-15-26-23-22(30)24(33)29-25(34)31(23)14-17-8-6-16(7-9-17)13-27-37(35,36)19-10-11-20-18(12-19)4-3-5-21(32)28-20/h6-12,15,27H,2-5,13-14H2,1H3,(H,28,32)(H,29,33,34)

>  <InChIKey>
GUZDPSZLHQZPSV-UHFFFAOYSA-N

>  <SMILES>
CCn1cnc2c1C(=O)NC(=O)N2Cc3ccc(cc3)CNS(=O)(=O)c4ccc5c(c4)CCCC(=O)N5

$$$$
