2GL0_ADN_A_901
  RCSB PDB08012017043D
Coordinates from PDB:2GL0:A:901 Model:1 without hydrogens
 19 21  0  0  0  0            999 V2000
   18.6640   18.0410   12.2420   O 0  0  0  0  0  0  0  0  0  0  0  0
   18.0650   19.2950   11.9860   C 0  0  0  0  0  0  0  0  0  0  0  0
   17.1780   18.8790   10.8360   C 0  0  0  0  0  0  0  0  0  0  0  0
   15.9370   18.4640   11.3880   O 0  0  0  0  0  0  0  0  0  0  0  0
   16.8200   20.0210    9.9220   C 0  0  0  0  0  0  0  0  0  0  0  0
   17.6380   19.8210    8.8030   O 0  0  0  0  0  0  0  0  0  0  0  0
   15.3300   19.8540    9.6280   C 0  0  0  0  0  0  0  0  0  0  0  0
   15.0560   18.7430    8.8310   O 0  0  0  0  0  0  0  0  0  0  0  0
   14.8340   19.1950   10.8240   C 0  0  0  0  0  0  0  0  0  0  0  0
   14.3520   20.2020   11.7710   N 0  0  0  0  0  0  0  0  0  0  0  0
   15.0600   21.1970   12.3440   C 0  0  0  0  0  0  0  0  0  0  0  0
   14.2660   21.9180   13.1750   N 0  0  0  0  0  0  0  0  0  0  0  0
   13.0370   21.3850   13.1270   C 0  0  0  0  0  0  0  0  0  0  0  0
   11.7380   21.6960   13.7580   C 0  0  0  0  0  0  0  0  0  0  0  0
   11.5950   22.7330   14.6620   N 0  0  0  0  0  0  0  0  0  0  0  0
   10.7150   20.8500   13.3990   N 0  0  0  0  0  0  0  0  0  0  0  0
   10.8640   19.8180   12.5150   C 0  0  0  0  0  0  0  0  0  0  0  0
   11.9900   19.4770   11.9120   N 0  0  0  0  0  0  0  0  0  0  0  0
   13.0870   20.2290   12.2010   C 0  0  0  0  0  0  0  0  0  0  0  0
  1  2  1  0  0  0  0
  2  3  1  0  0  0  0
  3  4  1  0  0  0  0
  3  5  1  0  0  0  0
  4  9  1  0  0  0  0
  5  6  1  0  0  0  0
  5  7  1  0  0  0  0
  7  8  1  0  0  0  0
  7  9  1  0  0  0  0
  9 10  1  0  0  0  0
 10 11  1  0  0  0  0
 10 19  1  0  0  0  0
 11 12  2  0  0  0  0
 12 13  1  0  0  0  0
 13 14  1  0  0  0  0
 13 19  2  0  0  0  0
 14 15  1  0  0  0  0
 14 16  2  0  0  0  0
 16 17  1  0  0  0  0
 17 18  2  0  0  0  0
 18 19  1  0  0  0  0
M  END
>  <InstanceId>
2GL0_ADN_A_901

>  <ChemCompId>
ADN

>  <PdbId>
2GL0

>  <ChainId>
A

>  <ResidueNumber>
901

>  <InsertionCode>


>  <Model>
1

>  <AltIds>


>  <MissingHeavyAtoms>
0

>  <ObservedFormula>
C10 N5 O4

>  <Name>
ADENOSINE

>  <SystematicName>
(2R,3R,4S,5R)-2-(6-aminopurin-9-yl)-5-(hydroxymethyl)oxolane-3,4-diol

>  <Synonyms>


>  <Type>
NON-POLYMER

>  <Formula>
C10 H13 N5 O4

>  <MolecularWeight>
267.241

>  <ModifiedDate>
2011-06-04

>  <Parent>


>  <OneLetterCode>


>  <SubcomponentList>


>  <AmbiguousFlag>
N

>  <InChI>
InChI=1S/C10H13N5O4/c11-8-5-9(13-2-12-8)15(3-14-5)10-7(18)6(17)4(1-16)19-10/h2-4,6-7,10,16-18H,1H2,(H2,11,12,13)/t4-,6-,7-,10-/m1/s1

>  <InChIKey>
OIRDTQYFTABQOQ-KQYNXXCUSA-N

>  <SMILES>
c1nc(c2c(n1)n(cn2)[C@H]3[C@@H]([C@@H]([C@H](O3)CO)O)O)N

$$$$
