5SZ3_72H_A_307
  RCSB PDB08022002563D
Coordinates from PDB:5SZ3:A:307 Model:1 without hydrogens
 20 22  0  0  0  0            999 V2000
    0.4700    5.9580   84.4200   C 0  0  0  0  0  0  0  0  0  0  0  0
    1.3710    6.8310   83.9130   C 0  0  0  0  0  0  0  0  0  0  0  0
    1.6180    8.0320   84.5650   C 0  0  0  0  0  0  0  0  0  0  0  0
    2.5350    8.9270   84.0540   C 0  0  0  0  0  0  0  0  0  0  0  0
    3.2040    8.6150   82.8890   C 0  0  0  0  0  0  0  0  0  0  0  0
    2.9610    7.4140   82.2410   C 0  0  0  0  0  0  0  0  0  0  0  0
    2.0390    6.5190   82.7550   C 0  0  0  0  0  0  0  0  0  0  0  0
    1.8050    5.3600   82.1260   N 0  0  0  0  0  0  0  0  0  0  0  0
    0.9110    4.4790   82.6200   C 0  0  0  0  0  0  0  0  0  0  0  0
    0.2040    4.8030   83.7670   C 0  0  0  0  0  0  0  0  0  0  0  0
   -0.7510    3.7990   84.3710   C 0  0  0  0  0  0  0  0  0  0  0  0
    0.0450    2.6280   84.9000   C 0  0  0  0  0  0  0  0  0  0  0  0
   -0.5440    1.6360   85.4900   C 0  0  0  0  0  0  0  0  0  0  0  0
   -2.0450    1.6580   85.6430   C 0  0  0  0  0  0  0  0  0  0  0  0
   -2.6820    0.1940   86.4910   S 0  0  0  0  0  0  0  0  0  0  0  0
   -4.1490    0.1790   86.5030   O 0  0  0  0  0  0  0  0  0  0  0  0
   -2.3020    0.2820   87.9050   O 0  0  0  0  0  0  0  0  0  0  0  0
   -1.9650   -1.1820   85.7860   N 0  0  0  0  0  0  0  0  0  0  0  0
   -2.7670    2.6750   85.1980   C 0  0  0  0  0  0  0  0  0  0  0  0
   -2.0620    3.8490   84.5080   C 0  0  0  0  0  0  0  0  0  0  0  0
  1  2  2  0  0  0  0
  1 10  1  0  0  0  0
  2  3  1  0  0  0  0
  2  7  1  0  0  0  0
  3  4  2  0  0  0  0
  4  5  1  0  0  0  0
  5  6  2  0  0  0  0
  6  7  1  0  0  0  0
  7  8  2  0  0  0  0
  8  9  1  0  0  0  0
  9 10  2  0  0  0  0
 10 11  1  0  0  0  0
 11 12  2  0  0  0  0
 11 20  1  0  0  0  0
 12 13  1  0  0  0  0
 13 14  2  0  0  0  0
 14 15  1  0  0  0  0
 14 19  1  0  0  0  0
 15 16  2  0  0  0  0
 15 17  2  0  0  0  0
 15 18  1  0  0  0  0
 19 20  2  0  0  0  0
M  END
>  <InstanceId>
5SZ3_72H_A_307

>  <ChemCompId>
72H

>  <PdbId>
5SZ3

>  <ChainId>
A

>  <ResidueNumber>
307

>  <InsertionCode>


>  <Model>
1

>  <AltIds>


>  <MissingHeavyAtoms>
0

>  <ObservedFormula>
C15 N2 O2 S

>  <Name>
4-(3-quinolinyl)-benzenesulfonamide

>  <SystematicName>
4-quinolin-3-ylbenzenesulfonamide

>  <Synonyms>
4-(quinolin-3-yl)benzene-1-sulfonamide

>  <Type>
NON-POLYMER

>  <Formula>
C15 H12 N2 O2 S

>  <MolecularWeight>
284.333

>  <ModifiedDate>
2020-06-17

>  <Parent>


>  <OneLetterCode>


>  <SubcomponentList>


>  <AmbiguousFlag>
N

>  <InChI>
InChI=1S/C15H12N2O2S/c16-20(18,19)14-7-5-11(6-8-14)13-9-12-3-1-2-4-15(12)17-10-13/h1-10H,(H2,16,18,19)

>  <InChIKey>
HGZKFXIUXSUJHM-UHFFFAOYSA-N

>  <SMILES>
c1ccc2c(c1)cc(cn2)c3ccc(cc3)S(=O)(=O)N

$$$$
