6GL8_F3Q_A_301
  RCSB PDB08022004493D
Coordinates from PDB:6GL8:A:301 Model:1 without hydrogens
 53 61  0  0  0  0            999 V2000
   15.0910    6.3800   17.6120   C 0  0  0  0  0  0  0  0  0  0  0  0
   15.5990    7.5680   16.8970   C 0  0  0  0  0  0  0  0  0  0  0  0
   16.5210    6.2200   14.9580   C 0  0  0  0  0  0  0  0  0  0  0  0
   16.8030    7.3170   15.9910   C 0  0  0  0  0  0  0  0  0  0  0  0
   15.1790    5.1270   16.7670   C 0  0  0  0  0  0  0  0  0  0  0  0
   15.8230    5.1150   15.5770   N 0  0  0  0  0  0  0  0  0  0  0  0
   15.7380    3.8580   15.0710   C 0  0  0  0  0  0  0  0  0  0  0  0
   15.0320    3.0980   15.9220   C 0  0  0  0  0  0  0  0  0  0  0  0
   14.6580    3.9360   17.0410   C 0  0  0  0  0  0  0  0  0  0  0  0
   13.8950    3.5340   18.2600   C 0  0  0  0  0  0  0  0  0  0  0  0
   14.1200    4.1940   19.3080   O 0  0  0  0  0  0  0  0  0  0  0  0
   13.0320    2.5280   18.2760   N 0  0  0  0  0  0  0  0  0  0  0  0
   16.3630    3.4770   13.7780   C 0  0  0  0  0  0  0  0  0  0  0  0
   15.7980    3.8350   12.5950   C 0  0  0  0  0  0  0  0  0  0  0  0
   17.5470    2.7560   13.7450   C 0  0  0  0  0  0  0  0  0  0  0  0
   17.5060    2.7920   11.3580   C 0  0  0  0  0  0  0  0  0  0  0  0
   16.3320    3.5110   11.3970   C 0  0  0  0  0  0  0  0  0  0  0  0
   15.9110    3.7930   10.1600   O 0  0  0  0  0  0  0  0  0  0  0  0
   16.8130    3.1650    9.3150   C 0  0  0  0  0  0  0  0  0  0  0  0
   17.8500    2.6050   10.0450   O 0  0  0  0  0  0  0  0  0  0  0  0
   18.2490    2.4210   15.0520   C 0  0  0  0  0  0  0  0  0  0  0  0
   18.1470    1.2590   15.6090   N 0  0  0  0  0  0  0  0  0  0  0  0
   18.8710    3.3900   15.5340   O 0  0  0  0  0  0  0  0  0  0  0  0
   18.7320    1.1330   16.9490   C 0  0  0  0  0  0  0  0  0  0  0  0
   17.5350    0.9100   17.8990   C 0  0  0  0  0  0  0  0  0  0  0  0
   17.3520    0.1800   15.0900   C 0  0  0  0  0  0  0  0  0  0  0  0
   16.5130   -0.5610   16.1450   C 0  0  0  0  0  0  0  0  0  0  0  0
   16.5680   -0.1610   17.4960   C 0  0  0  0  0  0  0  0  0  0  0  0
   15.7610   -0.8690   18.3870   C 0  0  0  0  0  0  0  0  0  0  0  0
   14.9080   -1.8850   17.9450   C 0  0  0  0  0  0  0  0  0  0  0  0
   14.8680   -2.2740   16.6130   C 0  0  0  0  0  0  0  0  0  0  0  0
   15.6680   -1.5490   15.7380   C 0  0  0  0  0  0  0  0  0  0  0  0
   19.6240   -0.1160   16.8750   C 0  0  0  0  0  0  0  0  0  0  0  0
   18.1130    2.4220   12.5280   C 0  0  0  0  0  0  0  0  0  0  0  0
   20.9950    0.1730   17.3760   N 0  0  0  0  0  0  0  0  0  0  0  0
   21.4560    1.4510   16.8040   C 0  0  0  0  0  0  0  0  0  0  0  0
   22.8920    1.7550   17.2200   C 0  0  0  0  0  0  0  0  0  0  0  0
   23.7050    0.6030   16.8400   O 0  0  0  0  0  0  0  0  0  0  0  0
   23.3110   -0.6450   17.5060   C 0  0  0  0  0  0  0  0  0  0  0  0
   21.8770   -0.9870   17.0860   C 0  0  0  0  0  0  0  0  0  0  0  0
   12.5100    1.9010   17.0800   C 0  0  0  0  0  0  0  0  0  0  0  0
   12.5290    2.0460   19.5120   C 0  0  0  0  0  0  0  0  0  0  0  0
   11.9250    2.6770   16.0800   C 0  0  0  0  0  0  0  0  0  0  0  0
   11.4560    2.0520   14.9850   C 0  0  0  0  0  0  0  0  0  0  0  0
   11.5230    0.7040   14.7610   C 0  0  0  0  0  0  0  0  0  0  0  0
   12.0940   -0.1340   15.7230   C 0  0  0  0  0  0  0  0  0  0  0  0
   12.6120    0.5160   16.8580   C 0  0  0  0  0  0  0  0  0  0  0  0
   11.1640    1.9970   19.7640   C 0  0  0  0  0  0  0  0  0  0  0  0
   10.6730    1.4980   20.9850   C 0  0  0  0  0  0  0  0  0  0  0  0
   11.5770    1.0680   21.9800   C 0  0  0  0  0  0  0  0  0  0  0  0
   12.9160    1.1370   21.7440   C 0  0  0  0  0  0  0  0  0  0  0  0
   13.4290    1.6120   20.5260   C 0  0  0  0  0  0  0  0  0  0  0  0
   11.0770    0.0710   13.6320   O 0  0  0  0  0  0  0  0  0  0  0  0
 19 20  1  0  0  0  0
 19 18  1  0  0  0  0
 20 16  1  0  0  0  0
 18 17  1  0  0  0  0
 16 17  2  0  0  0  0
 16 34  1  0  0  0  0
 17 14  1  0  0  0  0
 34 15  2  0  0  0  0
 14 13  2  0  0  0  0
 53 45  1  0  0  0  0
 15 13  1  0  0  0  0
 15 21  1  0  0  0  0
 13  7  1  0  0  0  0
 45 44  2  0  0  0  0
 45 46  1  0  0  0  0
  3  6  1  0  0  0  0
  3  4  1  0  0  0  0
 44 43  1  0  0  0  0
 21 23  2  0  0  0  0
 21 22  1  0  0  0  0
  7  6  1  0  0  0  0
  7  8  2  0  0  0  0
 26 22  1  0  0  0  0
 26 27  1  0  0  0  0
  6  5  1  0  0  0  0
 22 24  1  0  0  0  0
 46 47  2  0  0  0  0
 32 27  2  0  0  0  0
 32 31  1  0  0  0  0
  8  9  1  0  0  0  0
  4  2  1  0  0  0  0
 43 41  2  0  0  0  0
 27 28  1  0  0  0  0
 31 30  2  0  0  0  0
 36 37  1  0  0  0  0
 36 35  1  0  0  0  0
  5  9  2  0  0  0  0
  5  1  1  0  0  0  0
 47 41  1  0  0  0  0
 33 24  1  0  0  0  0
 33 35  1  0  0  0  0
  2  1  1  0  0  0  0
 38 37  1  0  0  0  0
 38 39  1  0  0  0  0
 24 25  1  0  0  0  0
  9 10  1  0  0  0  0
 41 12  1  0  0  0  0
 40 35  1  0  0  0  0
 40 39  1  0  0  0  0
 28 25  1  0  0  0  0
 28 29  2  0  0  0  0
 30 29  1  0  0  0  0
 10 12  1  0  0  0  0
 10 11  2  0  0  0  0
 12 42  1  0  0  0  0
 42 48  2  0  0  0  0
 42 52  1  0  0  0  0
 48 49  1  0  0  0  0
 52 51  2  0  0  0  0
 49 50  2  0  0  0  0
 51 50  1  0  0  0  0
M  END
>  <InstanceId>
6GL8_F3Q_A_301

>  <ChemCompId>
F3Q

>  <PdbId>
6GL8

>  <ChainId>
A

>  <ResidueNumber>
301

>  <InsertionCode>


>  <Model>
1

>  <AltIds>


>  <MissingHeavyAtoms>
0

>  <ObservedFormula>
C43 N4 O6

>  <Name>
~{N}-(4-hydroxyphenyl)-3-[6-[[(3~{S})-3-(morpholin-4-ylmethyl)-3,4-dihydro-1~{H}-isoquinolin-2-yl]carbonyl]-1,3-benzodioxol-5-yl]-~{N}-phenyl-5,6,7,8-tetrahydroindolizine-1-carboxamide

>  <SystematicName>
~{N}-(4-hydroxyphenyl)-3-[6-[[(3~{S})-3-(morpholin-4-ylmethyl)-3,4-dihydro-1~{H}-isoquinolin-2-yl]carbonyl]-1,3-benzodioxol-5-yl]-~{N}-phenyl-5,6,7,8-tetrahydroindolizine-1-carboxamide

>  <Synonyms>


>  <Type>
NON-POLYMER

>  <Formula>
C43 H42 N4 O6

>  <MolecularWeight>
710.817

>  <ModifiedDate>
2018-11-02

>  <Parent>


>  <OneLetterCode>


>  <SubcomponentList>


>  <AmbiguousFlag>
N

>  <InChI>
InChI=1S/C43H42N4O6/c48-34-15-13-32(14-16-34)47(31-10-2-1-3-11-31)43(50)37-23-39(45-17-7-6-12-38(37)45)35-24-40-41(53-28-52-40)25-36(35)42(49)46-26-30-9-5-4-8-29(30)22-33(46)27-44-18-20-51-21-19-44/h1-5,8-11,13-16,23-25,33,48H,6-7,12,17-22,26-28H2/t33-/m0/s1

>  <InChIKey>
VYXJULKGMXJVGI-XIFFEERXSA-N

>  <SMILES>
c1ccc(cc1)N(c2ccc(cc2)O)C(=O)c3cc(n4c3CCCC4)c5cc6c(cc5C(=O)N7Cc8ccccc8C[C@H]7CN9CCOCC9)OCO6

$$$$
