3LPL_TDP_A_887
  RCSB PDB08012019433D
Coordinates from PDB:3LPL:A:887 Model:1 without hydrogens
 11 10  0  0  0  0            999 V2000
   19.7830  -65.0930    0.8840   C 0  0  0  0  0  0  0  0  0  0  0  0
   18.5210  -64.2290    0.9260   C 0  0  0  0  0  0  0  0  0  0  0  0
   17.6100  -64.6670    1.9410   O 0  0  0  0  0  0  0  0  0  0  0  0
   16.1620  -63.9670    2.0550   P 0  0  0  0  0  0  0  0  0  0  0  0
   15.5010  -64.3530    0.6330   O 0  0  0  0  0  0  0  0  0  0  0  0
   15.4390  -64.6030    3.1800   O 0  0  0  0  0  0  0  0  0  0  0  0
   16.3490  -62.4990    2.0870   O 0  0  0  0  0  0  0  0  0  0  0  0
   14.7500  -65.7490    0.3420   P 0  0  0  0  0  0  0  0  0  0  0  0
   13.4130  -65.5220   -0.2550   O 0  0  0  0  0  0  0  0  0  0  0  0
   15.7010  -66.6100   -0.6300   O 0  5  0  0  0  0  0  0  0  0  0  0
   14.6810  -66.5450    1.7420   O 0  0  0  0  0  0  0  0  0  0  0  0
  1  2  1  0  0  0  0
  2  3  1  0  0  0  0
  3  4  1  0  0  0  0
  4  5  1  0  0  0  0
  4  6  2  0  0  0  0
  4  7  1  0  0  0  0
  5  8  1  0  0  0  0
  8  9  2  0  0  0  0
  8 10  1  0  0  0  0
  8 11  1  0  0  0  0
M  CHG  1  10  -1
M  END
>  <InstanceId>
3LPL_TDP_A_887

>  <ChemCompId>
TDP

>  <PdbId>
3LPL

>  <ChainId>
A

>  <ResidueNumber>
887

>  <InsertionCode>


>  <Model>
1

>  <AltIds>


>  <MissingHeavyAtoms>
0

>  <ObservedFormula>
C2 O7 P2

>  <Name>
THIAMIN DIPHOSPHATE

>  <SystematicName>
[2-[3-[(4-amino-2-methyl-pyrimidin-5-yl)methyl]-4-methyl-1,3-thiazol-3-ium-5-yl]ethoxy-hydroxy-phosphoryl] hydrogen phosphate

>  <Synonyms>


>  <Type>
NON-POLYMER

>  <Formula>
C12 H18 N4 O7 P2 S

>  <MolecularWeight>
424.306

>  <ModifiedDate>
2011-06-04

>  <Parent>


>  <OneLetterCode>


>  <SubcomponentList>


>  <AmbiguousFlag>
N

>  <InChI>
InChI=1S/C12H18N4O7P2S/c1-8-11(3-4-22-25(20,21)23-24(17,18)19)26-7-16(8)6-10-5-14-9(2)15-12(10)13/h5,7H,3-4,6H2,1-2H3,(H4-,13,14,15,17,18,19,20,21)

>  <InChIKey>
AYEKOFBPNLCAJY-UHFFFAOYSA-N

>  <SMILES>
Cc1c(sc[n+]1Cc2cnc(nc2N)C)CCO[P@@](=O)(O)O[P@](=O)(O)[O-]

$$$$
