3VBD_0FZ_A_2002
  RCSB PDB08012020473D
Coordinates from PDB:3VBD:A:2002 Model:1 without hydrogens
 22 24  0  0  0  0            999 V2000
   -5.8180   10.5810   10.2290   C 0  0  0  0  0  0  0  0  0  0  0  0
   -6.5820    9.3930   10.4320   O 0  0  0  0  0  0  0  0  0  0  0  0
   -5.8440    8.3990   10.9560   C 0  0  0  0  0  0  0  0  0  0  0  0
   -4.5190    8.5380   11.3120   C 0  0  0  0  0  0  0  0  0  0  0  0
   -6.4800    7.1880   11.2200   C 0  0  0  0  0  0  0  0  0  0  0  0
   -5.7310    6.2650   11.8900   C 0  0  0  0  0  0  0  0  0  0  0  0
   -4.4280    6.3610   12.3770   C 0  0  0  0  0  0  0  0  0  0  0  0
   -3.8000    7.5610   11.9970   C 0  0  0  0  0  0  0  0  0  0  0  0
   -2.4530    7.8110   12.2330   C 0  0  0  0  0  0  0  0  0  0  0  0
   -1.7260    6.4630   12.4300   C 0  0  0  0  0  0  0  0  0  0  0  0
   -2.4570    5.7340   13.5120   N 0  0  0  0  0  0  0  0  0  0  0  0
   -3.7850    5.4880   13.2610   C 0  0  0  0  0  0  0  0  0  0  0  0
   -4.2620    4.4090   13.9940   C 0  0  0  0  0  0  0  0  0  0  0  0
   -5.5720    4.3050   14.4440   C 0  0  0  0  0  0  0  0  0  0  0  0
   -6.0460    3.2270   15.1730   C 0  0  0  0  0  0  0  0  0  0  0  0
   -3.4270    3.3280   14.3410   C 0  0  0  0  0  0  0  0  0  0  0  0
   -3.8900    2.2270   15.0920   C 0  0  0  0  0  0  0  0  0  0  0  0
   -5.2190    2.1730   15.5400   C 0  0  0  0  0  0  0  0  0  0  0  0
   -5.8070    0.8320   16.5930   S 0  0  0  0  0  0  0  0  0  0  0  0
   -5.2410    1.1410   17.9210   O 0  0  0  0  0  0  0  0  0  0  0  0
   -7.3180    1.0140   16.5570   O 0  0  0  0  0  0  0  0  0  0  0  0
   -5.3480   -0.5110   16.1290   N 0  0  0  0  0  0  0  0  0  0  0  0
  1  2  1  0  0  0  0
  2  3  1  0  0  0  0
  3  5  2  0  0  0  0
  3  4  1  0  0  0  0
  5  6  1  0  0  0  0
  4  8  2  0  0  0  0
  6  7  2  0  0  0  0
  8  9  1  0  0  0  0
  8  7  1  0  0  0  0
  9 10  1  0  0  0  0
  7 12  1  0  0  0  0
 10 11  1  0  0  0  0
 12 11  2  0  0  0  0
 12 13  1  0  0  0  0
 13 16  2  0  0  0  0
 13 14  1  0  0  0  0
 16 17  1  0  0  0  0
 14 15  2  0  0  0  0
 17 18  2  0  0  0  0
 15 18  1  0  0  0  0
 18 19  1  0  0  0  0
 22 19  1  0  0  0  0
 21 19  2  0  0  0  0
 19 20  2  0  0  0  0
M  END
>  <InstanceId>
3VBD_0FZ_A_2002

>  <ChemCompId>
0FZ

>  <PdbId>
3VBD

>  <ChainId>
A

>  <ResidueNumber>
2002

>  <InsertionCode>


>  <Model>
1

>  <AltIds>


>  <MissingHeavyAtoms>
0

>  <ObservedFormula>
C16 N2 O3 S

>  <Name>
4-(6-methoxy-3,4-dihydroisoquinolin-1-yl)benzenesulfonamide

>  <SystematicName>
4-(6-methoxy-3,4-dihydroisoquinolin-1-yl)benzenesulfonamide

>  <Synonyms>


>  <Type>
NON-POLYMER

>  <Formula>
C16 H16 N2 O3 S

>  <MolecularWeight>
316.375

>  <ModifiedDate>
2012-03-30

>  <Parent>


>  <OneLetterCode>


>  <SubcomponentList>


>  <AmbiguousFlag>
N

>  <InChI>
InChI=1S/C16H16N2O3S/c1-21-13-4-7-15-12(10-13)8-9-18-16(15)11-2-5-14(6-3-11)22(17,19)20/h2-7,10H,8-9H2,1H3,(H2,17,19,20)

>  <InChIKey>
RZQVMYVIRNCVDY-UHFFFAOYSA-N

>  <SMILES>
COc1ccc2c(c1)CCN=C2c3ccc(cc3)S(=O)(=O)N

$$$$
