3NEE_B72_A_1
  RCSB PDB08012019543D
Coordinates from PDB:3NEE:A:1 Model:1 without hydrogens
 24 25  0  0  0  0            999 V2000
  -19.5200   -2.2660    2.3740   O 0  0  0  0  0  0  0  0  0  0  0  0
  -20.7120   -1.9000    2.5000   C 0  0  0  0  0  0  0  0  0  0  0  0
  -21.6530   -2.6440    2.8460   O 0  0  0  0  0  0  0  0  0  0  0  0
  -21.0670   -0.4490    2.1990   C 0  0  0  0  0  0  0  0  0  0  0  0
  -22.3370   -0.4600    1.4950   O 0  0  0  0  0  0  0  0  0  0  0  0
  -22.0600   -0.2040    0.1910   C 0  0  0  0  0  0  0  0  0  0  0  0
  -21.0090   -0.8810   -0.4040   C 0  0  0  0  0  0  0  0  0  0  0  0
  -20.6870   -0.6420   -1.7310   C 0  0  0  0  0  0  0  0  0  0  0  0
  -19.5180   -1.4060   -2.3690   C 0  0  0  0  0  0  0  0  0  0  0  0
  -21.4130    0.2700   -2.4940   C 0  0  0  0  0  0  0  0  0  0  0  0
  -22.4630    0.9580   -1.8760   C 0  0  0  0  0  0  0  0  0  0  0  0
  -22.7920    0.7230   -0.5420   C 0  0  0  0  0  0  0  0  0  0  0  0
  -23.2740    1.9780   -2.6880   C 0  0  0  0  0  0  0  0  0  0  0  0
  -21.0040    0.5230   -3.9540   C 0  0  0  0  0  0  0  0  0  0  0  0
  -21.7990   -0.2540   -5.0080   C 0  0  0  0  0  0  0  0  0  0  0  0
  -21.6730    0.1520   -6.3340   C 0  0  0  0  0  0  0  0  0  0  0  0
  -22.3560   -0.5080   -7.3490   C 0  0  0  0  0  0  0  0  0  0  0  0
  -22.2150   -0.0510   -8.8110   C 0  0  0  0  0  0  0  0  0  0  0  0
  -22.0950    1.4690   -8.8360   C 0  0  0  0  0  0  0  0  0  0  0  0
  -20.9600   -0.6650   -9.4240   C 0  0  0  0  0  0  0  0  0  0  0  0
  -23.1700   -1.5840   -7.0200   C 0  0  0  0  0  0  0  0  0  0  0  0
  -23.8520   -2.2220   -8.0000   O 0  0  0  0  0  0  0  0  0  0  0  0
  -23.2990   -1.9930   -5.6960   C 0  0  0  0  0  0  0  0  0  0  0  0
  -22.6130   -1.3360   -4.6800   C 0  0  0  0  0  0  0  0  0  0  0  0
  2  3  2  0  0  0  0
  2  1  1  0  0  0  0
  4  2  1  0  0  0  0
  5  4  1  0  0  0  0
  6  5  1  0  0  0  0
  7  6  1  0  0  0  0
  8  7  2  0  0  0  0
  9  8  1  0  0  0  0
 10 11  2  0  0  0  0
 10  8  1  0  0  0  0
 11 12  1  0  0  0  0
 12  6  2  0  0  0  0
 13 11  1  0  0  0  0
 14 10  1  0  0  0  0
 15 24  1  0  0  0  0
 15 14  1  0  0  0  0
 16 15  2  0  0  0  0
 17 21  2  0  0  0  0
 17 16  1  0  0  0  0
 18 17  1  0  0  0  0
 18 20  1  0  0  0  0
 19 18  1  0  0  0  0
 21 23  1  0  0  0  0
 22 21  1  0  0  0  0
 23 24  2  0  0  0  0
M  END
>  <InstanceId>
3NEE_B72_A_1

>  <ChemCompId>
B72

>  <PdbId>
3NEE

>  <ChainId>
A

>  <ResidueNumber>
1

>  <InsertionCode>


>  <Model>
1

>  <AltIds>


>  <MissingHeavyAtoms>
0

>  <ObservedFormula>
C20 O4

>  <Name>
{4-[4-hydroxy-3-(1-methylethyl)benzyl]-3,5-dimethylphenoxy}acetic acid

>  <SystematicName>
2-[4-[(4-hydroxy-3-propan-2-yl-phenyl)methyl]-3,5-dimethyl-phenoxy]ethanoic acid

>  <Synonyms>


>  <Type>
NON-POLYMER

>  <Formula>
C20 H24 O4

>  <MolecularWeight>
328.402

>  <ModifiedDate>
2011-06-04

>  <Parent>


>  <OneLetterCode>


>  <SubcomponentList>


>  <AmbiguousFlag>
N

>  <InChI>
InChI=1S/C20H24O4/c1-12(2)17-9-15(5-6-19(17)21)10-18-13(3)7-16(8-14(18)4)24-11-20(22)23/h5-9,12,21H,10-11H2,1-4H3,(H,22,23)

>  <InChIKey>
QNAZTOHXCZPOSA-UHFFFAOYSA-N

>  <SMILES>
Cc1cc(cc(c1Cc2ccc(c(c2)C(C)C)O)C)OCC(=O)O

$$$$
