2QTA_TDP_A_887
  RCSB PDB08012017523D
Coordinates from PDB:2QTA:A:887 Model:1 without hydrogens
 26 27  0  0  0  0            999 V2000
   24.7360  -59.7730    1.1900   N 0  0  0  0  0  0  0  0  0  0  0  0
   24.2560  -58.8600    0.2760   C 0  0  0  0  0  0  0  0  0  0  0  0
   24.4840  -57.4120    0.5690   C 0  0  0  0  0  0  0  0  0  0  0  0
   23.6220  -59.2260   -0.8480   N 0  0  0  0  0  0  0  0  0  0  0  0
   23.4400  -60.5930   -1.1170   C 0  0  0  0  0  0  0  0  0  0  0  0
   22.8250  -60.8920   -2.2470   N 0  0  0  0  0  0  0  0  0  0  0  0
   23.9470  -61.6090   -0.1650   C 0  0  0  0  0  0  0  0  0  0  0  0
   24.5730  -61.1360    0.9660   C 0  0  0  0  0  0  0  0  0  0  0  0
   23.9200  -63.1170   -0.4210   C 0  0  0  0  0  0  0  0  0  0  0  0
   22.5360  -63.7630   -0.4540   N 0  3  0  0  0  0  0  0  0  0  0  0
   21.9930  -64.2870   -1.5610   C 0  0  0  0  0  0  0  0  0  0  0  0
   20.5460  -65.1160   -1.2650   S 0  0  0  0  0  0  0  0  0  0  0  0
   20.6500  -64.7410    0.4240   C 0  0  0  0  0  0  0  0  0  0  0  0
   21.7780  -64.0050    0.7080   C 0  0  0  0  0  0  0  0  0  0  0  0
   22.2240  -63.5000    2.0510   C 0  0  0  0  0  0  0  0  0  0  0  0
   19.5680  -65.1260    1.3570   C 0  0  0  0  0  0  0  0  0  0  0  0
   18.3440  -64.3050    1.0940   C 0  0  0  0  0  0  0  0  0  0  0  0
   17.3780  -64.5910    2.1250   O 0  0  0  0  0  0  0  0  0  0  0  0
   16.0110  -63.7650    2.1840   P 0  0  0  0  0  0  0  0  0  0  0  0
   15.2670  -64.2410    0.8340   O 0  0  0  0  0  0  0  0  0  0  0  0
   15.2920  -64.2450    3.3610   O 0  0  0  0  0  0  0  0  0  0  0  0
   16.3040  -62.3120    2.0760   O 0  0  0  0  0  0  0  0  0  0  0  0
   14.6470  -65.6390    0.3070   P 0  0  0  0  0  0  0  0  0  0  0  0
   13.3430  -65.2390   -0.4600   O 0  0  0  0  0  0  0  0  0  0  0  0
   15.6230  -66.2370   -0.6190   O 0  5  0  0  0  0  0  0  0  0  0  0
   14.2980  -66.4370    1.4960   O 0  0  0  0  0  0  0  0  0  0  0  0
  1  2  2  0  0  0  0
  1  8  1  0  0  0  0
  2  3  1  0  0  0  0
  2  4  1  0  0  0  0
  4  5  2  0  0  0  0
  5  6  1  0  0  0  0
  5  7  1  0  0  0  0
  7  8  2  0  0  0  0
  7  9  1  0  0  0  0
  9 10  1  0  0  0  0
 10 11  2  0  0  0  0
 10 14  1  0  0  0  0
 11 12  1  0  0  0  0
 12 13  1  0  0  0  0
 13 14  2  0  0  0  0
 13 16  1  0  0  0  0
 14 15  1  0  0  0  0
 16 17  1  0  0  0  0
 17 18  1  0  0  0  0
 18 19  1  0  0  0  0
 19 20  1  0  0  0  0
 19 21  2  0  0  0  0
 19 22  1  0  0  0  0
 20 23  1  0  0  0  0
 23 24  2  0  0  0  0
 23 25  1  0  0  0  0
 23 26  1  0  0  0  0
M  CHG  2  10   1  25  -1
M  END
>  <InstanceId>
2QTA_TDP_A_887

>  <ChemCompId>
TDP

>  <PdbId>
2QTA

>  <ChainId>
A

>  <ResidueNumber>
887

>  <InsertionCode>


>  <Model>
1

>  <AltIds>


>  <MissingHeavyAtoms>
0

>  <ObservedFormula>
C12 N4 O7 P2 S

>  <Name>
THIAMIN DIPHOSPHATE

>  <SystematicName>
[2-[3-[(4-amino-2-methyl-pyrimidin-5-yl)methyl]-4-methyl-1,3-thiazol-3-ium-5-yl]ethoxy-hydroxy-phosphoryl] hydrogen phosphate

>  <Synonyms>


>  <Type>
NON-POLYMER

>  <Formula>
C12 H18 N4 O7 P2 S

>  <MolecularWeight>
424.306

>  <ModifiedDate>
2011-06-04

>  <Parent>


>  <OneLetterCode>


>  <SubcomponentList>


>  <AmbiguousFlag>
N

>  <InChI>
InChI=1S/C12H18N4O7P2S/c1-8-11(3-4-22-25(20,21)23-24(17,18)19)26-7-16(8)6-10-5-14-9(2)15-12(10)13/h5,7H,3-4,6H2,1-2H3,(H4-,13,14,15,17,18,19,20,21)

>  <InChIKey>
AYEKOFBPNLCAJY-UHFFFAOYSA-N

>  <SMILES>
Cc1c(sc[n+]1Cc2cnc(nc2N)C)CCO[P@@](=O)(O)O[P@](=O)(O)[O-]

$$$$
