2GSU_AMP_A_1004
  RCSB PDB08012017053D
Coordinates from PDB:2GSU:A:1004 Model:1 without hydrogens
 23 25  0  0  0  0            999 V2000
   29.5860   43.9380   22.7300   P 0  0  0  0  0  0  0  0  0  0  0  0
   28.3430   44.7100   23.0700   O 0  0  0  0  0  0  0  0  0  0  0  0
   29.8250   42.6930   23.5730   O 0  0  0  0  0  0  0  0  0  0  0  0
   30.7940   44.7930   22.5040   O 0  0  0  0  0  0  0  0  0  0  0  0
   29.2740   43.4120   21.2330   O 0  0  0  0  0  0  0  0  0  0  0  0
   27.9430   43.1350   20.7540   C 0  0  0  0  0  0  0  0  0  0  0  0
   27.5620   44.0160   19.5540   C 0  0  0  0  0  0  0  0  0  0  0  0
   27.1770   43.2010   18.4360   O 0  0  0  0  0  0  0  0  0  0  0  0
   26.3930   44.9470   19.8320   C 0  0  0  0  0  0  0  0  0  0  0  0
   26.8460   46.3080   19.9420   O 0  0  0  0  0  0  0  0  0  0  0  0
   25.4030   44.7610   18.6890   C 0  0  0  0  0  0  0  0  0  0  0  0
   25.2850   45.9640   17.9180   O 0  0  0  0  0  0  0  0  0  0  0  0
   25.9170   43.5790   17.8560   C 0  0  0  0  0  0  0  0  0  0  0  0
   24.9970   42.3930   17.8350   N 0  0  0  0  0  0  0  0  0  0  0  0
   23.9770   42.1770   18.6850   C 0  0  0  0  0  0  0  0  0  0  0  0
   23.3240   41.0220   18.4250   N 0  0  0  0  0  0  0  0  0  0  0  0
   23.9220   40.4530   17.3840   C 0  0  0  0  0  0  0  0  0  0  0  0
   23.7040   39.2090   16.6220   C 0  0  0  0  0  0  0  0  0  0  0  0
   22.6940   38.3710   16.9670   N 0  0  0  0  0  0  0  0  0  0  0  0
   24.5400   38.9570   15.5870   N 0  0  0  0  0  0  0  0  0  0  0  0
   25.5310   39.8090   15.2560   C 0  0  0  0  0  0  0  0  0  0  0  0
   25.7730   40.9590   15.9250   N 0  0  0  0  0  0  0  0  0  0  0  0
   25.0230   41.3460   16.9900   C 0  0  0  0  0  0  0  0  0  0  0  0
  1  2  2  0  0  0  0
  1  3  1  0  0  0  0
  1  4  1  0  0  0  0
  1  5  1  0  0  0  0
  5  6  1  0  0  0  0
  6  7  1  0  0  0  0
  7  8  1  0  0  0  0
  7  9  1  0  0  0  0
  8 13  1  0  0  0  0
  9 10  1  0  0  0  0
  9 11  1  0  0  0  0
 11 12  1  0  0  0  0
 11 13  1  0  0  0  0
 13 14  1  0  0  0  0
 14 15  1  0  0  0  0
 14 23  1  0  0  0  0
 15 16  2  0  0  0  0
 16 17  1  0  0  0  0
 17 18  1  0  0  0  0
 17 23  2  0  0  0  0
 18 19  1  0  0  0  0
 18 20  2  0  0  0  0
 20 21  1  0  0  0  0
 21 22  2  0  0  0  0
 22 23  1  0  0  0  0
M  END
>  <InstanceId>
2GSU_AMP_A_1004

>  <ChemCompId>
AMP

>  <PdbId>
2GSU

>  <ChainId>
A

>  <ResidueNumber>
1004

>  <InsertionCode>


>  <Model>
1

>  <AltIds>


>  <MissingHeavyAtoms>
0

>  <ObservedFormula>
C10 N5 O7 P

>  <Name>
ADENOSINE MONOPHOSPHATE

>  <SystematicName>
[(2R,3S,4R,5R)-5-(6-aminopurin-9-yl)-3,4-bis(oxidanyl)oxolan-2-yl]methyl dihydrogen phosphate

>  <Synonyms>


>  <Type>
NON-POLYMER

>  <Formula>
C10 H14 N5 O7 P

>  <MolecularWeight>
347.221

>  <ModifiedDate>
2011-12-08

>  <Parent>


>  <OneLetterCode>


>  <SubcomponentList>


>  <AmbiguousFlag>
N

>  <InChI>
InChI=1S/C10H14N5O7P/c11-8-5-9(13-2-12-8)15(3-14-5)10-7(17)6(16)4(22-10)1-21-23(18,19)20/h2-4,6-7,10,16-17H,1H2,(H2,11,12,13)(H2,18,19,20)/t4-,6-,7-,10-/m1/s1

>  <InChIKey>
UDMBCSSLTHHNCD-KQYNXXCUSA-N

>  <SMILES>
c1nc(c2c(n1)n(cn2)[C@H]3[C@@H]([C@@H]([C@H](O3)COP(=O)(O)O)O)O)N

$$$$
