4HYM_CJC_A_401
  RCSB PDB08012021583D
Coordinates from PDB:4HYM:A:401 Model:1 without hydrogens
 30 34  0  0  0  0            999 V2000
    4.0690   -2.5920  -10.9570   O 0  0  0  0  0  0  0  0  0  0  0  0
    4.7870   -1.8580  -11.6790   C 0  0  0  0  0  0  0  0  0  0  0  0
    4.3380   -1.5180  -12.9650   C 0  0  0  0  0  0  0  0  0  0  0  0
    5.9750   -1.4070  -11.2080   N 0  0  0  0  0  0  0  0  0  0  0  0
    6.7430   -0.6100  -11.9710   C 0  0  0  0  0  0  0  0  0  0  0  0
    6.2670   -0.2520  -13.3440   C 0  0  0  0  0  0  0  0  0  0  0  0
    5.0690   -0.7300  -13.7770   N 0  0  0  0  0  0  0  0  0  0  0  0
    7.0360    0.5470  -14.1270   N 0  0  0  0  0  0  0  0  0  0  0  0
    8.2140    1.0050  -13.6730   C 0  0  0  0  0  0  0  0  0  0  0  0
    8.7060    0.6970  -12.4000   C 0  0  0  0  0  0  0  0  0  0  0  0
    7.9660   -0.1190  -11.5350   C 0  0  0  0  0  0  0  0  0  0  0  0
   10.2150    1.3420  -11.9480   S 0  0  0  0  0  0  0  0  0  0  0  0
   10.2250    1.8400  -10.3400   C 0  0  0  0  0  0  0  0  0  0  0  0
    9.0580    1.9260   -9.6660   N 0  0  0  0  0  0  0  0  0  0  0  0
    9.0080    2.3900   -8.3960   C 0  0  0  0  0  0  0  0  0  0  0  0
    7.7510    2.3370   -7.7800   N 0  0  0  0  0  0  0  0  0  0  0  0
    6.5470    2.1090   -8.5690   C 0  0  0  0  0  0  0  0  0  0  0  0
    5.7370    1.2200   -7.6140   C 0  0  0  0  0  0  0  0  0  0  0  0
    6.4580    1.1530   -6.2620   C 0  0  0  0  0  0  0  0  0  0  0  0
    7.0300   -0.1890   -6.0450   N 0  0  0  0  0  0  0  0  0  0  0  0
    7.5660    2.2190   -6.3390   C 0  0  0  0  0  0  0  0  0  0  0  0
   10.3330    2.7680   -7.7950   C 0  0  0  0  0  0  0  0  0  0  0  0
   11.5740    2.6540   -8.5960   C 0  0  0  0  0  0  0  0  0  0  0  0
   11.4220    2.1620   -9.8270   N 0  0  0  0  0  0  0  0  0  0  0  0
   12.6830    3.0830   -7.9210   N 0  0  0  0  0  0  0  0  0  0  0  0
   12.3810    3.4890   -6.6620   C 0  0  0  0  0  0  0  0  0  0  0  0
   10.9300    3.2950   -6.5720   C 0  0  0  0  0  0  0  0  0  0  0  0
    9.9950    3.8340   -5.1370  Cl 0  0  0  0  0  0  0  0  0  0  0  0
   13.2730    3.9990   -5.5470   C 0  0  0  0  0  0  0  0  0  0  0  0
   14.2360    5.0160   -6.1370   C 0  0  0  0  0  0  0  0  0  0  0  0
  1  2  2  0  0  0  0
  3  2  1  0  0  0  0
  3  7  2  0  0  0  0
  2  4  1  0  0  0  0
  7  6  1  0  0  0  0
  4  5  1  0  0  0  0
  6  5  2  0  0  0  0
  6  8  1  0  0  0  0
  5 11  1  0  0  0  0
  8  9  2  0  0  0  0
 11 10  2  0  0  0  0
  9 10  1  0  0  0  0
 10 12  1  0  0  0  0
 20 19  1  0  0  0  0
 12 13  1  0  0  0  0
 18 17  1  0  0  0  0
 18 19  1  0  0  0  0
 17 16  1  0  0  0  0
 19 21  1  0  0  0  0
 13 14  2  0  0  0  0
 13 24  1  0  0  0  0
 14 15  1  0  0  0  0
 16 15  1  0  0  0  0
 16 21  1  0  0  0  0
 24 23  2  0  0  0  0
 15 22  2  0  0  0  0
 23 22  1  0  0  0  0
 23 25  1  0  0  0  0
 22 27  1  0  0  0  0
 25 26  1  0  0  0  0
 27 26  2  0  0  0  0
 27 28  1  0  0  0  0
 26 29  1  0  0  0  0
 29 30  1  0  0  0  0
M  END
>  <InstanceId>
4HYM_CJC_A_401

>  <ChemCompId>
CJC

>  <PdbId>
4HYM

>  <ChainId>
A

>  <ResidueNumber>
401

>  <InsertionCode>


>  <Model>
1

>  <AltIds>


>  <MissingHeavyAtoms>
0

>  <ObservedFormula>
C19 N8 O S Cl

>  <Name>
7-({4-[(3R)-3-aminopyrrolidin-1-yl]-5-chloro-6-ethyl-7H-pyrrolo[2,3-d]pyrimidin-2-yl}sulfanyl)pyrido[2,3-b]pyrazin-2(1H)-one

>  <SystematicName>
7-[[4-[(3R)-3-azanylpyrrolidin-1-yl]-5-chloranyl-6-ethyl-7H-pyrrolo[2,3-d]pyrimidin-2-yl]sulfanyl]-1H-pyrido[2,3-b]pyrazin-2-one

>  <Synonyms>


>  <Type>
NON-POLYMER

>  <Formula>
C19 H19 Cl N8 O S

>  <MolecularWeight>
442.925

>  <ModifiedDate>
2013-02-08

>  <Parent>


>  <OneLetterCode>


>  <SubcomponentList>


>  <AmbiguousFlag>
N

>  <InChI>
InChI=1S/C19H19ClN8OS/c1-2-11-15(20)14-17(25-11)26-19(27-18(14)28-4-3-9(21)8-28)30-10-5-12-16(22-6-10)23-7-13(29)24-12/h5-7,9H,2-4,8,21H2,1H3,(H,24,29)(H,25,26,27)/t9-/m1/s1

>  <InChIKey>
QARZTJJXVNQVNZ-SECBINFHSA-N

>  <SMILES>
CCc1c(c2c([nH]1)nc(nc2N3CC[C@H](C3)N)Sc4cc5c(nc4)N=CC(=O)N5)Cl

$$$$
