4CEB_ZSV_B_1215
  RCSB PDB08012021223D
Coordinates from PDB:4CEB:B:1215 Model:1 without hydrogens
 42 45  0  0  0  0            999 V2000
   11.6370   35.1200   -5.3420   C 0  0  0  0  0  0  0  0  0  0  0  0
   12.7370   34.6770   -4.6440   C 0  0  0  0  0  0  0  0  0  0  0  0
   10.5880   35.7510   -4.6910   C 0  0  0  0  0  0  0  0  0  0  0  0
   12.8000   34.8700   -3.2780   C 0  0  0  0  0  0  0  0  0  0  0  0
    9.4990   33.0320    1.8830   C 0  0  0  0  0  0  0  0  0  0  0  0
    6.9170   36.3130    0.1180   C 0  0  0  0  0  0  0  0  0  0  0  0
    6.4260   34.4130   -1.2340   C 0  0  0  0  0  0  0  0  0  0  0  0
    9.4640   32.0560    2.8660   C 0  0  0  0  0  0  0  0  0  0  0  0
    6.6630   35.5620    1.2420   C 0  0  0  0  0  0  0  0  0  0  0  0
    6.1740   33.6440   -0.1080   C 0  0  0  0  0  0  0  0  0  0  0  0
   10.6580   35.9400   -3.3230   C 0  0  0  0  0  0  0  0  0  0  0  0
   10.7910   31.5820    0.4780   C 0  0  0  0  0  0  0  0  0  0  0  0
    6.8020   35.7410   -1.1270   C 0  0  0  0  0  0  0  0  0  0  0  0
   11.7640   35.4990   -2.6210   C 0  0  0  0  0  0  0  0  0  0  0  0
   10.1600   32.7990    0.6870   C 0  0  0  0  0  0  0  0  0  0  0  0
   10.1090   30.8600    2.6750   C 0  0  0  0  0  0  0  0  0  0  0  0
   10.7550   30.6110    1.4750   C 0  0  0  0  0  0  0  0  0  0  0  0
    6.2920   34.2380    1.1320   C 0  0  0  0  0  0  0  0  0  0  0  0
   12.3900   36.8150    2.1320   C 0  0  0  0  0  0  0  0  0  0  0  0
   11.7750   35.6630    1.8410   C 0  0  0  0  0  0  0  0  0  0  0  0
    9.5300   36.6200   -2.6540   C 0  0  0  0  0  0  0  0  0  0  0  0
   11.4810   31.2840   -0.8200   C 0  0  0  0  0  0  0  0  0  0  0  0
   12.2680   28.7290    6.4040   C 0  0  0  0  0  0  0  0  0  0  0  0
   11.2010   28.4200    2.2240   C 0  0  0  0  0  0  0  0  0  0  0  0
   11.1370   29.0170    3.6090   C 0  0  0  0  0  0  0  0  0  0  0  0
    5.6500   32.2160    2.1510   C 0  0  0  0  0  0  0  0  0  0  0  0
    7.0760   36.5700   -2.3490   C 0  0  0  0  0  0  0  0  0  0  0  0
   11.8870   35.6830   -1.1480   C 0  0  0  0  0  0  0  0  0  0  0  0
   10.1880   33.8990   -0.3290   C 0  0  0  0  0  0  0  0  0  0  0  0
   12.3490   34.5950    0.9630   C 0  0  0  0  0  0  0  0  0  0  0  0
   10.8560   28.3320    6.0070   C 0  0  0  0  0  0  0  0  0  0  0  0
   10.9340   27.8620    4.5730   C 0  0  0  0  0  0  0  0  0  0  0  0
    8.2930   36.1490   -3.0020   N 0  0  0  0  0  0  0  0  0  0  0  0
   11.6250   34.4420   -0.3490   N 0  3  0  0  0  0  0  0  0  0  0  0
   11.2640   30.1250   -1.2930   O 0  0  0  0  0  0  0  0  0  0  0  0
   12.3200   29.7960    7.0750   O 0  0  0  0  0  0  0  0  0  0  0  0
    9.7210   37.5290   -1.8590   O 0  0  0  0  0  0  0  0  0  0  0  0
   12.1170   32.1790   -1.4250   O 0  0  0  0  0  0  0  0  0  0  0  0
   13.2150   27.9690    6.0590   O 0  0  0  0  0  0  0  0  0  0  0  0
   11.4330   29.4200    1.2350   O 0  0  0  0  0  0  0  0  0  0  0  0
   10.0480   29.9320    3.7080   O 0  0  0  0  0  0  0  0  0  0  0  0
    6.0630   33.5730    2.3280   O 0  0  0  0  0  0  0  0  0  0  0  0
  1  2  1  0  0  0  0
  1  3  2  0  0  0  0
  2  4  2  0  0  0  0
  3 11  1  0  0  0  0
  4 14  1  0  0  0  0
  5  8  1  0  0  0  0
  5 15  2  0  0  0  0
  6  9  1  0  0  0  0
  6 13  2  0  0  0  0
  7 10  2  0  0  0  0
  7 13  1  0  0  0  0
  8 16  2  0  0  0  0
  9 18  2  0  0  0  0
 10 18  1  0  0  0  0
 11 14  2  0  0  0  0
 11 21  1  0  0  0  0
 12 15  1  0  0  0  0
 12 17  2  0  0  0  0
 12 22  1  0  0  0  0
 13 27  1  0  0  0  0
 14 28  1  0  0  0  0
 15 29  1  0  0  0  0
 16 17  1  0  0  0  0
 16 41  1  0  0  0  0
 17 40  1  0  0  0  0
 18 42  1  0  0  0  0
 19 20  2  0  0  0  0
 20 30  1  0  0  0  0
 21 33  1  0  0  0  0
 21 37  2  0  0  0  0
 22 35  1  0  0  0  0
 22 38  2  0  0  0  0
 23 31  1  0  0  0  0
 23 36  1  0  0  0  0
 23 39  2  0  0  0  0
 24 25  1  0  0  0  0
 24 40  1  0  0  0  0
 25 32  1  0  0  0  0
 25 41  1  0  0  0  0
 26 42  1  0  0  0  0
 27 33  1  0  0  0  0
 28 34  1  0  0  0  0
 29 34  1  0  0  0  0
 30 34  1  0  0  0  0
 31 32  1  0  0  0  0
M  CHG  1  34   1
M  END
>  <InstanceId>
4CEB_ZSV_B_1215

>  <ChemCompId>
ZSV

>  <PdbId>
4CEB

>  <ChainId>
B

>  <ResidueNumber>
1215

>  <InsertionCode>


>  <Model>
1

>  <AltIds>


>  <MissingHeavyAtoms>
0

>  <ObservedFormula>
C32 N2 O8

>  <Name>
(R)-[(2S)-5-carboxy-2-(2-carboxyethyl)-2,3-dihydro-1,4-benzodioxin-6-yl]methyl-[[2-[(4-methoxyphenyl)methylcarbamoyl]phenyl]methyl]-prop-2-enyl-azanium

>  <SystematicName>
(R)-[(2S)-5-carboxy-2-(2-carboxyethyl)-2,3-dihydro-1,4-benzodioxin-6-yl]methyl-[[2-[(4-methoxyphenyl)methylcarbamoyl]phenyl]methyl]-prop-2-enyl-azanium

>  <Synonyms>


>  <Type>
non-polymer

>  <Formula>
C32 H35 N2 O8

>  <MolecularWeight>
575.629

>  <ModifiedDate>
2012-07-06

>  <Parent>


>  <OneLetterCode>


>  <SubcomponentList>


>  <AmbiguousFlag>
N

>  <InChI>
InChI=1/C32H34N2O8/c1-3-16-34(18-22-6-4-5-7-26(22)31(37)33-17-21-8-11-24(40-2)12-9-21)19-23-10-14-27-30(29(23)32(38)39)41-20-25(42-27)13-15-28(35)36/h3-12,14,25H,1,13,15-20H2,2H3,(H,33,37)(H,35,36)(H,38,39)/p+1/t25-/m0/s1/fC32H35N2O8/h33-35,38H/q+1

>  <InChIKey>
ZRNNRYOIYQTQFF-LSRPXZNIDQ

>  <SMILES>
COc1ccc(cc1)CNC(=O)c2ccccc2C[N@@H+](CC=C)Cc3ccc4c(c3C(=O)O)OC[C@@H](O4)CCC(=O)O

$$$$
