3O5N_BR0_E_1
  RCSB PDB08012019583D
Coordinates from PDB:3O5N:E:1 Model:1 without hydrogens
 22 24  0  0  0  0            999 V2000
   51.7950  -20.5690   89.8930   C 0  0  0  0  0  0  0  0  0  0  0  0
   54.1240  -21.1790   89.6590   N 0  0  0  0  0  0  0  0  0  0  0  0
   51.9170  -21.3220   90.8810   O 0  0  0  0  0  0  0  0  0  0  0  0
   53.0840  -20.2900   89.1060   C 0  0  0  0  0  0  0  0  0  0  0  0
   53.5030  -18.7880   89.1680   C 0  0  0  0  0  0  0  0  0  0  0  0
   54.8740  -18.4990   89.8280   C 0  0  0  0  0  0  0  0  0  0  0  0
   55.1270  -23.7560   90.2080   O 0  0  0  0  0  0  0  0  0  0  0  0
   59.2950  -18.0330   89.7190   O 0  0  0  0  0  0  0  0  0  0  0  0
   56.0180  -24.1100   88.2120   O 0  0  0  0  0  0  0  0  0  0  0  0
   57.2130  -16.8960   89.2460   O 0  5  0  0  0  0  0  0  0  0  0  0
   57.7000  -21.7260   89.0990   C 0  0  0  0  0  0  0  0  0  0  0  0
   58.1640  -20.4120   89.1650   C 0  0  0  0  0  0  0  0  0  0  0  0
   53.0480  -18.1950   91.4570   C 0  0  0  0  0  0  0  0  0  0  0  0
   52.5660  -17.9430   90.0280   C 0  0  0  0  0  0  0  0  0  0  0  0
   55.7880  -23.3920   89.2110   C 0  0  0  0  0  0  0  0  0  0  0  0
   56.3470  -21.9730   89.2620   C 0  0  0  0  0  0  0  0  0  0  0  0
   57.3110  -19.3330   89.3990   C 0  0  0  0  0  0  0  0  0  0  0  0
   55.4810  -20.9120   89.4960   C 0  0  0  0  0  0  0  0  0  0  0  0
   57.8960  -18.1170   89.4490   N 0  3  0  0  0  0  0  0  0  0  0  0
   54.5580  -18.4050   91.3270   C 0  0  0  0  0  0  0  0  0  0  0  0
   55.9350  -19.5950   89.5660   C 0  0  0  0  0  0  0  0  0  0  0  0
   50.7220  -20.0610   89.4940   O 0  0  0  0  0  0  0  0  0  0  0  0
  1  3  1  0  0  0  0
  4  1  1  0  0  0  0
  4  2  1  0  0  0  0
  4  5  1  0  0  0  0
  5  6  1  0  0  0  0
  5 14  1  0  0  0  0
  6 20  1  0  0  0  0
  9 15  2  0  0  0  0
 10 19  1  0  0  0  0
 11 12  2  0  0  0  0
 11 16  1  0  0  0  0
 12 17  1  0  0  0  0
 14 13  1  0  0  0  0
 15  7  1  0  0  0  0
 15 16  1  0  0  0  0
 16 18  2  0  0  0  0
 17 19  1  0  0  0  0
 17 21  2  0  0  0  0
 18  2  1  0  0  0  0
 18 21  1  0  0  0  0
 19  8  2  0  0  0  0
 20 13  2  0  0  0  0
 21  6  1  0  0  0  0
 22  1  2  0  0  0  0
M  CHG  2  10  -1  19   1
M  END
>  <InstanceId>
3O5N_BR0_E_1

>  <ChemCompId>
BR0

>  <PdbId>
3O5N

>  <ChainId>
E

>  <ResidueNumber>
1

>  <InsertionCode>


>  <Model>
1

>  <AltIds>


>  <MissingHeavyAtoms>
0

>  <ObservedFormula>
C14 N2 O6

>  <Name>
(3aS,4R,9bR)-9-nitro-3a,4,5,9b-tetrahydro-3H-cyclopenta[c]quinoline-4,6-dicarboxylic acid

>  <SystematicName>
(3aS,4R,9bR)-9-nitro-3a,4,5,9b-tetrahydro-3H-cyclopenta[c]quinoline-4,6-dicarboxylic acid

>  <Synonyms>


>  <Type>
NON-POLYMER

>  <Formula>
C14 H12 N2 O6

>  <MolecularWeight>
304.255

>  <ModifiedDate>
2011-06-10

>  <Parent>


>  <OneLetterCode>


>  <SubcomponentList>


>  <AmbiguousFlag>
N

>  <InChI>
InChI=1S/C14H12N2O6/c17-13(18)8-4-5-9(16(21)22)10-6-2-1-3-7(6)12(14(19)20)15-11(8)10/h1-2,4-7,12,15H,3H2,(H,17,18)(H,19,20)/t6-,7+,12-/m1/s1

>  <InChIKey>
CTXNQOWRJIPUOM-KEHGIVTQSA-N

>  <SMILES>
c1cc(c2c(c1C(=O)O)N[C@H]([C@@H]3[C@H]2C=CC3)C(=O)O)[N+](=O)[O-]

$$$$
