1RO6_ROL_A_601
  RCSB PDB08012015533D
Coordinates from PDB:1RO6:A:601 Model:1 without hydrogens
 20 22  0  0  0  0            999 V2000
   32.3880   75.3670   22.0660   C 0  0  0  0  0  0  0  0  0  0  0  0
   32.0700   75.9080   20.8170   C 0  0  0  0  0  0  0  0  0  0  0  0
   31.7440   77.2840   20.6410   C 0  0  0  0  0  0  0  0  0  0  0  0
   31.7800   78.1470   21.7500   C 0  0  0  0  0  0  0  0  0  0  0  0
   32.0800   77.6010   23.0140   C 0  0  0  0  0  0  0  0  0  0  0  0
   32.3680   76.2310   23.1800   C 0  0  0  0  0  0  0  0  0  0  0  0
   32.7140   73.8820   22.1460   C 0  0  0  0  0  0  0  0  0  0  0  0
   34.0240   73.4890   22.8680   C 0  0  0  0  0  0  0  0  0  0  0  0
   33.5700   72.4390   23.8950   C 0  0  0  0  0  0  0  0  0  0  0  0
   34.2760   71.9940   24.7980   O 0  0  0  0  0  0  0  0  0  0  0  0
   32.2890   72.1030   23.6680   N 0  0  0  0  0  0  0  0  0  0  0  0
   31.6120   73.0950   22.8460   C 0  0  0  0  0  0  0  0  0  0  0  0
   31.3730   77.8860   19.4320   O 0  0  0  0  0  0  0  0  0  0  0  0
   31.1640   77.0760   18.2680   C 0  0  0  0  0  0  0  0  0  0  0  0
   32.5030   76.7930   17.5870   C 0  0  0  0  0  0  0  0  0  0  0  0
   32.8320   78.1180   16.9100   C 0  0  0  0  0  0  0  0  0  0  0  0
   31.4860   78.6660   16.4470   C 0  0  0  0  0  0  0  0  0  0  0  0
   30.4150   77.9020   17.2180   C 0  0  0  0  0  0  0  0  0  0  0  0
   31.5020   79.4880   21.4880   O 0  0  0  0  0  0  0  0  0  0  0  0
   31.6980   80.4640   22.5060   C 0  0  0  0  0  0  0  0  0  0  0  0
  1  2  2  0  0  0  0
  1  6  1  0  0  0  0
  1  7  1  0  0  0  0
  2  3  1  0  0  0  0
  3  4  2  0  0  0  0
  3 13  1  0  0  0  0
  4  5  1  0  0  0  0
  4 19  1  0  0  0  0
  5  6  2  0  0  0  0
  7  8  1  0  0  0  0
  7 12  1  0  0  0  0
  8  9  1  0  0  0  0
  9 10  2  0  0  0  0
  9 11  1  0  0  0  0
 11 12  1  0  0  0  0
 13 14  1  0  0  0  0
 14 15  1  0  0  0  0
 14 18  1  0  0  0  0
 15 16  1  0  0  0  0
 16 17  1  0  0  0  0
 17 18  1  0  0  0  0
 19 20  1  0  0  0  0
M  END
>  <InstanceId>
1RO6_ROL_A_601

>  <ChemCompId>
ROL

>  <PdbId>
1RO6

>  <ChainId>
A

>  <ResidueNumber>
601

>  <InsertionCode>


>  <Model>
1

>  <AltIds>


>  <MissingHeavyAtoms>
0

>  <ObservedFormula>
C16 N O3

>  <Name>
ROLIPRAM

>  <SystematicName>
(4R)-4-(3-cyclopentyloxy-4-methoxy-phenyl)pyrrolidin-2-one

>  <Synonyms>
(4R)-[3-(CYCLOPENTYLOXY)-4-METHOXYPHENYL]-2-PYRROLIDINONE

>  <Type>
NON-POLYMER

>  <Formula>
C16 H21 N O3

>  <MolecularWeight>
275.343

>  <ModifiedDate>
2020-06-17

>  <Parent>


>  <OneLetterCode>


>  <SubcomponentList>


>  <AmbiguousFlag>
N

>  <InChI>
InChI=1S/C16H21NO3/c1-19-14-7-6-11(12-9-16(18)17-10-12)8-15(14)20-13-4-2-3-5-13/h6-8,12-13H,2-5,9-10H2,1H3,(H,17,18)/t12-/m0/s1

>  <InChIKey>
HJORMJIFDVBMOB-LBPRGKRZSA-N

>  <SMILES>
COc1ccc(cc1OC2CCCC2)[C@H]3CC(=O)NC3

$$$$
