3D1Z_017_B_201
  RCSB PDB08012018483D
Coordinates from PDB:3D1Z:B:201 Model:1 without hydrogens
 38 41  0  0  0  0            999 V2000
   21.0700   28.9230   14.0670   N 0  0  0  0  0  0  0  0  0  0  0  0
   20.4720   27.7580   14.4560   C 0  0  0  0  0  0  0  0  0  0  0  0
   19.1680   27.4880   14.0360   C 0  0  0  0  0  0  0  0  0  0  0  0
   18.5120   26.3270   14.4150   C 0  0  0  0  0  0  0  0  0  0  0  0
   19.2350   25.4050   15.1640   C 0  0  0  0  0  0  0  0  0  0  0  0
   20.5200   25.6440   15.6750   C 0  0  0  0  0  0  0  0  0  0  0  0
   21.1700   26.8230   15.2410   C 0  0  0  0  0  0  0  0  0  0  0  0
   18.3040   23.9630   15.8030   S 0  0  0  0  0  0  0  0  0  0  0  0
   17.0730   23.7540   14.8900   O 0  0  0  0  0  0  0  0  0  0  0  0
   19.3240   22.7760   16.0170   O 0  0  0  0  0  0  0  0  0  0  0  0
   17.6830   24.3310   17.4470   N 0  0  0  0  0  0  0  0  0  0  0  0
   18.6770   24.6800   18.4900   C 0  0  0  0  0  0  0  0  0  0  0  0
   18.2560   24.0530   19.8520   C 0  0  0  0  0  0  0  0  0  0  0  0
   18.1120   22.5400   19.7320   C 0  0  0  0  0  0  0  0  0  0  0  0
   19.3780   24.3890   20.8290   C 0  0  0  0  0  0  0  0  0  0  0  0
   16.3850   25.0950   17.4320   C 0  0  0  0  0  0  0  0  0  0  0  0
   15.2450   24.1850   17.9850   C 0  0  0  0  0  0  0  0  0  0  0  0
   14.0920   24.9990   18.2010   O 0  0  0  0  0  0  0  0  0  0  0  0
   14.8600   23.0250   16.9990   C 0  0  0  0  0  0  0  0  0  0  0  0
   13.9850   22.1660   17.7370   N 0  0  0  0  0  0  0  0  0  0  0  0
   14.2760   20.8850   18.0330   C 0  0  0  0  0  0  0  0  0  0  0  0
   15.3380   20.2430   17.7540   O 0  0  0  0  0  0  0  0  0  0  0  0
   13.2080   20.3040   18.7250   O 0  0  0  0  0  0  0  0  0  0  0  0
   13.3140   18.8590   18.9830   C 0  0  0  0  0  0  0  0  0  0  0  0
   12.6640   18.5850   20.3540   C 0  0  0  0  0  0  0  0  0  0  0  0
   11.2440   18.7390   20.1230   O 0  0  0  0  0  0  0  0  0  0  0  0
   11.0500   18.2250   18.7830   C 0  0  0  0  0  0  0  0  0  0  0  0
   10.1480   19.1240   18.1140   O 0  0  0  0  0  0  0  0  0  0  0  0
   10.9100   19.6640   17.0010   C 0  0  0  0  0  0  0  0  0  0  0  0
   11.9870   18.6030   16.6670   C 0  0  0  0  0  0  0  0  0  0  0  0
   12.3210   18.1650   18.0720   C 0  0  0  0  0  0  0  0  0  0  0  0
   14.1120   23.4850   15.7020   C 0  0  0  0  0  0  0  0  0  0  0  0
   12.4140   21.9390   14.6750   C 0  0  0  0  0  0  0  0  0  0  0  0
   12.0790   20.8650   13.8270   C 0  0  0  0  0  0  0  0  0  0  0  0
   13.0950   20.1860   13.1440   C 0  0  0  0  0  0  0  0  0  0  0  0
   14.4250   20.5780   13.2280   C 0  0  0  0  0  0  0  0  0  0  0  0
   14.7790   21.6750   14.0430   C 0  0  0  0  0  0  0  0  0  0  0  0
   13.7530   22.3410   14.7560   C 0  0  0  0  0  0  0  0  0  0  0  0
  1  2  1  0  0  0  0
  2  3  2  0  0  0  0
  2  7  1  0  0  0  0
  3  4  1  0  0  0  0
  4  5  2  0  0  0  0
  5  6  1  0  0  0  0
  5  8  1  0  0  0  0
  6  7  2  0  0  0  0
  8  9  2  0  0  0  0
  8 10  2  0  0  0  0
  8 11  1  0  0  0  0
 11 12  1  0  0  0  0
 11 16  1  0  0  0  0
 12 13  1  0  0  0  0
 13 14  1  0  0  0  0
 13 15  1  0  0  0  0
 16 17  1  0  0  0  0
 17 18  1  0  0  0  0
 17 19  1  0  0  0  0
 19 20  1  0  0  0  0
 19 32  1  0  0  0  0
 20 21  1  0  0  0  0
 21 22  2  0  0  0  0
 21 23  1  0  0  0  0
 23 24  1  0  0  0  0
 24 25  1  0  0  0  0
 24 31  1  0  0  0  0
 25 26  1  0  0  0  0
 26 27  1  0  0  0  0
 27 28  1  0  0  0  0
 27 31  1  0  0  0  0
 28 29  1  0  0  0  0
 29 30  1  0  0  0  0
 30 31  1  0  0  0  0
 32 38  1  0  0  0  0
 33 34  2  0  0  0  0
 33 38  1  0  0  0  0
 34 35  1  0  0  0  0
 35 36  2  0  0  0  0
 36 37  1  0  0  0  0
 37 38  2  0  0  0  0
M  END
>  <InstanceId>
3D1Z_017_B_201

>  <ChemCompId>
017

>  <PdbId>
3D1Z

>  <ChainId>
B

>  <ResidueNumber>
201

>  <InsertionCode>


>  <Model>
1

>  <AltIds>


>  <MissingHeavyAtoms>
0

>  <ObservedFormula>
C27 N3 O7 S

>  <Name>
(3R,3AS,6AR)-HEXAHYDROFURO[2,3-B]FURAN-3-YL(1S,2R)-3-[[(4-AMINOPHENYL)SULFONYL](ISOBUTYL)AMINO]-1-BENZYL-2-HYDROXYPROPYLCARBAMATE

>  <SystematicName>
[(3R,3aS,6aR)-2,3,3a,4,5,6a-hexahydrofuro[2,3-b]furan-3-yl] N-[(2S,3R)-4-[(4-aminophenyl)sulfonyl-(2-methylpropyl)amino]-3-hydroxy-1-phenyl-butan-2-yl]carbamate

>  <Synonyms>
Darunavir; TMC114; UIC-94017

>  <Type>
NON-POLYMER

>  <Formula>
C27 H37 N3 O7 S

>  <MolecularWeight>
547.664

>  <ModifiedDate>
2020-05-22

>  <Parent>


>  <OneLetterCode>


>  <SubcomponentList>


>  <AmbiguousFlag>
N

>  <InChI>
InChI=1S/C27H37N3O7S/c1-18(2)15-30(38(33,34)21-10-8-20(28)9-11-21)16-24(31)23(14-19-6-4-3-5-7-19)29-27(32)37-25-17-36-26-22(25)12-13-35-26/h3-11,18,22-26,31H,12-17,28H2,1-2H3,(H,29,32)/t22-,23-,24+,25-,26+/m0/s1

>  <InChIKey>
CJBJHOAVZSMMDJ-HEXNFIEUSA-N

>  <SMILES>
CC(C)C[N@@](C[C@H]([C@H](Cc1ccccc1)NC(=O)O[C@H]2CO[C@@H]3[C@H]2CCO3)O)S(=O)(=O)c4ccc(cc4)N

$$$$
