1YDK_GTX_A_5100
  RCSB PDB08012016263D
Coordinates from PDB:1YDK:A:5100 Model:1 without hydrogens
 26 25  0  0  0  0            999 V2000
   25.8140   24.1410   13.1200   N 0  3  0  0  0  0  0  0  0  0  0  0
   26.6160   25.2300   12.5920   C 0  0  0  0  0  0  0  0  0  0  0  0
   27.1920   24.8350   11.2590   C 0  0  0  0  0  0  0  0  0  0  0  0
   27.5250   25.7060   10.4230   O 0  0  0  0  0  0  0  0  0  0  0  0
   27.3500   23.6320   10.9700   O 0  0  0  0  0  0  0  0  0  0  0  0
   27.7430   25.5880   13.5610   C 0  0  0  0  0  0  0  0  0  0  0  0
   28.3650   26.9360   13.1990   C 0  0  0  0  0  0  0  0  0  0  0  0
   29.4220   27.3370   14.2080   C 0  0  0  0  0  0  0  0  0  0  0  0
   29.4730   26.7140   15.4620   O 0  0  0  0  0  0  0  0  0  0  0  0
   30.2640   28.3060   13.8560   N 0  0  0  0  0  0  0  0  0  0  0  0
   31.2080   28.8780   14.8040   C 0  0  0  0  0  0  0  0  0  0  0  0
   30.8970   30.3270   15.0190   C 0  0  0  0  0  0  0  0  0  0  0  0
   30.6400   31.1440   13.9020   O 0  0  0  0  0  0  0  0  0  0  0  0
   32.6350   28.8050   14.2580   C 0  0  0  0  0  0  0  0  0  0  0  0
   33.1360   27.1560   13.7270   S 0  0  0  0  0  0  0  0  0  0  0  0
   33.8320   26.7590   15.3520   C 0  0  0  0  0  0  0  0  0  0  0  0
   35.1720   26.0400   15.2400   C 0  0  0  0  0  0  0  0  0  0  0  0
   35.0020   24.5240   15.2500   C 0  0  0  0  0  0  0  0  0  0  0  0
   36.0700   23.8270   16.0930   C 0  0  0  0  0  0  0  0  0  0  0  0
   37.4510   23.8420   15.4450   C 0  0  0  0  0  0  0  0  0  0  0  0
   38.5440   23.7660   16.5110   C 0  0  0  0  0  0  0  0  0  0  0  0
   30.9010   30.7590   16.2810   N 0  0  0  0  0  0  0  0  0  0  0  0
   30.4070   32.0700   16.6610   C 0  0  0  0  0  0  0  0  0  0  0  0
   29.1180   32.0270   17.4520   C 0  0  0  0  0  0  0  0  0  0  0  0
   28.6510   33.0890   17.9240   O 0  0  0  0  0  0  0  0  0  0  0  0
   28.4980   30.9540   17.6520   O 0  0  0  0  0  0  0  0  0  0  0  0
  1  2  1  0  0  0  0
  2  3  1  0  0  0  0
  2  6  1  0  0  0  0
  3  4  2  0  0  0  0
  3  5  1  0  0  0  0
  6  7  1  0  0  0  0
  7  8  1  0  0  0  0
  8  9  2  0  0  0  0
  8 10  1  0  0  0  0
 10 11  1  0  0  0  0
 11 12  1  0  0  0  0
 11 14  1  0  0  0  0
 12 13  2  0  0  0  0
 12 22  1  0  0  0  0
 14 15  1  0  0  0  0
 15 16  1  0  0  0  0
 16 17  1  0  0  0  0
 17 18  1  0  0  0  0
 18 19  1  0  0  0  0
 19 20  1  0  0  0  0
 20 21  1  0  0  0  0
 22 23  1  0  0  0  0
 23 24  1  0  0  0  0
 24 25  2  0  0  0  0
 24 26  1  0  0  0  0
M  CHG  1   1   1
M  END
>  <InstanceId>
1YDK_GTX_A_5100

>  <ChemCompId>
GTX

>  <PdbId>
1YDK

>  <ChainId>
A

>  <ResidueNumber>
5100

>  <InsertionCode>


>  <Model>
1

>  <AltIds>


>  <MissingHeavyAtoms>
0

>  <ObservedFormula>
C16 N3 O6 S

>  <Name>
S-HEXYLGLUTATHIONE

>  <SystematicName>
[(2S)-5-[[(2R)-1-(carboxymethylamino)-3-hexylsulfanyl-1-oxo-propan-2-yl]amino]-1-hydroxy-1,5-dioxo-pentan-2-yl]azanium

>  <Synonyms>


>  <Type>
NON-POLYMER

>  <Formula>
C16 H30 N3 O6 S

>  <MolecularWeight>
392.491

>  <ModifiedDate>
2011-06-04

>  <Parent>


>  <OneLetterCode>


>  <SubcomponentList>


>  <AmbiguousFlag>
N

>  <InChI>
InChI=1S/C16H29N3O6S/c1-2-3-4-5-8-26-10-12(15(23)18-9-14(21)22)19-13(20)7-6-11(17)16(24)25/h11-12H,2-10,17H2,1H3,(H,18,23)(H,19,20)(H,21,22)(H,24,25)/p+1/t11-,12-/m0/s1

>  <InChIKey>
HXJDWCWJDCOHDG-RYUDHWBXSA-O

>  <SMILES>
CCCCCCSC[C@@H](C(=O)NCC(=O)O)NC(=O)CC[C@@H](C(=O)O)[NH3+]

$$$$
