5U0F_7R1_A_302
  RCSB PDB08022003093D
Coordinates from PDB:5U0F:A:302 Model:1 without hydrogens
 18 19  0  0  0  0            999 V2000
   18.6940    4.4910   13.4790   C 0  0  0  0  0  0  0  0  0  0  0  0
   19.0420    5.8010   13.7800   C 0  0  0  0  0  0  0  0  0  0  0  0
   16.9080    6.1240   14.7980   C 0  0  0  0  0  0  0  0  0  0  0  0
   17.4550    3.9920   13.8180   C 0  0  0  0  0  0  0  0  0  0  0  0
   18.1320    6.6060   14.4320   C 0  0  0  0  0  0  0  0  0  0  0  0
   16.6150    4.8340   14.4850   C 0  0  0  0  0  0  0  0  0  0  0  0
   16.5280    0.4000   14.6280   C 0  0  0  0  0  0  0  0  0  0  0  0
   15.6340    1.0340   16.5690   C 0  0  0  0  0  0  0  0  0  0  0  0
   17.2700    1.6970   14.7520   C 0  0  0  0  0  0  0  0  0  0  0  0
   19.7290    8.2770   14.5740   C 0  0  0  0  0  0  0  0  0  0  0  0
   15.0800    4.5200   13.4550   C 0  0  0  0  0  0  0  0  0  0  0  0
   16.9540    2.6010   13.5670   C 0  0  0  0  0  0  0  0  0  0  0  0
   15.6650    0.0930   15.6150   N 0  0  0  0  0  0  0  0  0  0  0  0
   16.7270   -0.3310   13.6780   O 0  0  0  0  0  0  0  0  0  0  0  0
   18.3560    7.9250   14.7760   O 0  0  0  0  0  0  0  0  0  0  0  0
   15.4220    4.3230   14.8020   O 0  0  0  0  0  0  0  0  0  0  0  0
   14.7310    0.9890   17.9520   S 0  0  0  0  0  0  0  0  0  0  0  0
   16.7530    2.3530   16.3380   S 0  0  0  0  0  0  0  0  0  0  0  0
  1  2  2  0  0  0  0
  1  4  1  0  0  0  0
  2  5  1  0  0  0  0
  3  5  2  0  0  0  0
  3  6  1  0  0  0  0
  4  6  2  0  0  0  0
  4 12  1  0  0  0  0
  5 15  1  0  0  0  0
  6 16  1  0  0  0  0
  7  9  1  0  0  0  0
  7 13  1  0  0  0  0
  7 14  2  0  0  0  0
  8 13  1  0  0  0  0
  8 17  2  0  0  0  0
  8 18  1  0  0  0  0
  9 12  1  0  0  0  0
  9 18  1  0  0  0  0
 10 15  1  0  0  0  0
 11 16  1  0  0  0  0
M  END
>  <InstanceId>
5U0F_7R1_A_302

>  <ChemCompId>
7R1

>  <PdbId>
5U0F

>  <ChainId>
A

>  <ResidueNumber>
302

>  <InsertionCode>


>  <Model>
1

>  <AltIds>


>  <MissingHeavyAtoms>
0

>  <ObservedFormula>
C12 N O3 S2

>  <Name>
(5R)-5-[(2,4-dimethoxyphenyl)methyl]-2-sulfanylidene-1,3-thiazolidin-4-one

>  <SystematicName>
(5~{R})-5-[(2,4-dimethoxyphenyl)methyl]-2-sulfanylidene-1,3-thiazolidin-4-one

>  <Synonyms>


>  <Type>
NON-POLYMER

>  <Formula>
C12 H13 N O3 S2

>  <MolecularWeight>
283.367

>  <ModifiedDate>
2017-08-25

>  <Parent>


>  <OneLetterCode>


>  <SubcomponentList>


>  <AmbiguousFlag>
N

>  <InChI>
InChI=1S/C12H13NO3S2/c1-15-8-4-3-7(9(6-8)16-2)5-10-11(14)13-12(17)18-10/h3-4,6,10H,5H2,1-2H3,(H,13,14,17)/t10-/m1/s1

>  <InChIKey>
VFBHENTYUHYMTR-SNVBAGLBSA-N

>  <SMILES>
COc1ccc(c(c1)OC)C[C@@H]2C(=O)NC(=S)S2

$$$$
