4CPW_V78_A_1101
  RCSB PDB08012021243D
Coordinates from PDB:4CPW:A:1101 Model:1 without hydrogens
 52 55  0  0  0  0            999 V2000
    7.9020   23.2340    2.8770   C 0  0  0  0  0  0  0  0  0  0  0  0
    9.2210   22.9110    3.1690   C 0  0  0  0  0  0  0  0  0  0  0  0
   10.2360   23.8110    2.8600   C 0  0  0  0  0  0  0  0  0  0  0  0
   11.5300   23.5760    3.3040   C 0  0  0  0  0  0  0  0  0  0  0  0
    9.9350   25.0060    2.2230   C 0  0  0  0  0  0  0  0  0  0  0  0
    8.6150   25.3220    1.9280   C 0  0  0  0  0  0  0  0  0  0  0  0
    7.6100   24.3950    2.1670   C 0  0  0  0  0  0  0  0  0  0  0  0
    6.2850   24.7450    1.9300   C 0  0  0  0  0  0  0  0  0  0  0  0
    5.6430   24.8550    3.1600   C 0  0  0  0  0  0  0  0  0  0  0  0
    5.3940   26.1970    3.4450   C 0  0  0  0  0  0  0  0  0  0  0  0
    5.9480   26.8120    4.5730   C 0  0  0  0  0  0  0  0  0  0  0  0
    6.9610   25.9450    5.2240   N 0  0  0  0  0  0  0  0  0  0  0  0
    8.1490   26.5340    5.6800   C 0  0  0  0  0  0  0  0  0  0  0  0
    8.4060   27.6780    5.2910   O 0  0  0  0  0  0  0  0  0  0  0  0
    9.1020   25.7620    6.3670   C 0  0  0  0  0  0  0  0  0  0  0  0
    9.5250   26.4870    7.6550   C 0  0  0  0  0  0  0  0  0  0  0  0
    8.3120   26.6450    8.5730   C 0  0  0  0  0  0  0  0  0  0  0  0
   10.6230   25.6960    8.3740   C 0  0  0  0  0  0  0  0  0  0  0  0
   10.2740   25.5460    5.4850   N 0  0  0  0  0  0  0  0  0  0  0  0
   10.9090   24.3060    5.4010   C 0  0  0  0  0  0  0  0  0  0  0  0
   10.4920   23.3730    6.0890   O 0  0  0  0  0  0  0  0  0  0  0  0
   11.9760   24.1470    4.4990   C 0  0  0  0  0  0  0  0  0  0  0  0
   12.5560   25.4300    4.2210   O 0  0  0  0  0  0  0  0  0  0  0  0
   13.0520   23.2370    5.0880   C 0  0  0  0  0  0  0  0  0  0  0  0
   13.8170   23.9670    6.1900   C 0  0  0  0  0  0  0  0  0  0  0  0
   15.2990   23.6120    6.0750   C 0  0  0  0  0  0  0  0  0  0  0  0
   15.5750   22.3780    6.8240   N 0  0  0  0  0  0  0  0  0  0  0  0
   16.0870   21.4750    6.3020   N 0  0  0  0  0  0  0  0  0  0  0  0
   15.3270   20.6710    5.5330   C 0  0  0  0  0  0  0  0  0  0  0  0
   14.1570   20.3780    5.8100   O 0  0  0  0  0  0  0  0  0  0  0  0
   16.1930   19.7240    4.6930   C 0  0  0  0  0  0  0  0  0  0  0  0
   15.4120   18.9820    3.6080   C 0  0  0  0  0  0  0  0  0  0  0  0
   14.4280   18.0000    4.2510   C 0  0  0  0  0  0  0  0  0  0  0  0
   14.6570   19.9770    2.7280   C 0  0  0  0  0  0  0  0  0  0  0  0
   16.4070   18.1990    2.7510   C 0  0  0  0  0  0  0  0  0  0  0  0
   16.8440   18.7410    5.5690   N 0  0  0  0  0  0  0  0  0  0  0  0
   18.1660   18.7480    5.7030   C 0  0  0  0  0  0  0  0  0  0  0  0
   18.8270   19.5370    5.0270   O 0  0  0  0  0  0  0  0  0  0  0  0
   18.7640   17.8700    6.5570   O 0  0  0  0  0  0  0  0  0  0  0  0
   20.0270   18.3590    7.0130   C 0  0  0  0  0  0  0  0  0  0  0  0
   15.6580   22.3960    8.1600   C 0  0  0  0  0  0  0  0  0  0  0  0
   15.9820   21.1850    8.7690   C 0  0  0  0  0  0  0  0  0  0  0  0
   17.2990   20.7450    8.8200   C 0  0  0  0  0  0  0  0  0  0  0  0
   17.6180   19.5570    9.4750   C 0  0  0  0  0  0  0  0  0  0  0  0
   14.9800   20.4130    9.3420   C 0  0  0  0  0  0  0  0  0  0  0  0
   15.2930   19.2030    9.9500   C 0  0  0  0  0  0  0  0  0  0  0  0
   16.6110   18.7720   10.0250   C 0  0  0  0  0  0  0  0  0  0  0  0
   16.9010   17.6320   10.6520   C 0  0  0  0  0  0  0  0  0  0  0  0
   16.0750   16.5670   10.5730   C 0  0  0  0  0  0  0  0  0  0  0  0
   16.4360   15.5480   11.3650   C 0  0  0  0  0  0  0  0  0  0  0  0
   17.6890   16.0750   12.3120   S 0  0  0  0  0  0  0  0  0  0  0  0
   17.7700   17.6020   11.6710   C 0  0  0  0  0  0  0  0  0  0  0  0
  1  2  1  0  0  0  0
  1  7  2  0  0  0  0
  2  3  2  0  0  0  0
  3  4  1  0  0  0  0
  3  5  1  0  0  0  0
  4 22  1  0  0  0  0
  5  6  2  0  0  0  0
  6  7  1  0  0  0  0
  7  8  1  0  0  0  0
  8  9  1  0  0  0  0
  9 10  2  0  0  0  0
 10 11  1  0  0  0  0
 11 12  1  0  0  0  0
 12 13  1  0  0  0  0
 13 14  2  0  0  0  0
 13 15  1  0  0  0  0
 15 16  1  0  0  0  0
 15 19  1  0  0  0  0
 16 17  1  0  0  0  0
 16 18  1  0  0  0  0
 19 20  1  0  0  0  0
 20 21  2  0  0  0  0
 20 22  1  0  0  0  0
 22 23  1  0  0  0  0
 22 24  1  0  0  0  0
 24 25  1  0  0  0  0
 25 26  1  0  0  0  0
 26 27  1  0  0  0  0
 27 28  1  0  0  0  0
 27 41  1  0  0  0  0
 28 29  1  0  0  0  0
 29 30  2  0  0  0  0
 29 31  1  0  0  0  0
 31 32  1  0  0  0  0
 31 36  1  0  0  0  0
 32 33  1  0  0  0  0
 32 34  1  0  0  0  0
 32 35  1  0  0  0  0
 36 37  1  0  0  0  0
 37 38  2  0  0  0  0
 37 39  1  0  0  0  0
 39 40  1  0  0  0  0
 41 42  1  0  0  0  0
 42 43  1  0  0  0  0
 42 45  2  0  0  0  0
 43 44  2  0  0  0  0
 44 47  1  0  0  0  0
 45 46  1  0  0  0  0
 46 47  2  0  0  0  0
 47 48  1  0  0  0  0
 48 49  1  0  0  0  0
 48 52  1  0  0  0  0
 49 50  1  0  0  0  0
 50 51  2  0  0  0  0
 51 52  2  0  0  0  0
M  END
>  <InstanceId>
4CPW_V78_A_1101

>  <ChemCompId>
V78

>  <PdbId>
4CPW

>  <ChainId>
A

>  <ResidueNumber>
1101

>  <InsertionCode>


>  <Model>
1

>  <AltIds>


>  <MissingHeavyAtoms>
0

>  <ObservedFormula>
C40 N5 O6 S

>  <Name>
methyl N-[(2S)-1-[2-[[4-[(3S)-3,4-dihydrothiophen-3-yl]phenyl]methyl]-2-[3-[(3Z,8S,11R)-11-oxidanyl-7,10-bis(oxidanylidene)-8-propan-2-yl-6,9-diazabicyclo[11.2.2]heptadeca-1(16),3,13(17),14-tetraen-11-yl]propyl]hydrazinyl]-3,3-dimethyl-1-oxidanylidene-butan-2-yl]carbamate

>  <SystematicName>
methyl N-[(2S)-1-[2-[[4-[(3S)-3,4-dihydrothiophen-3-yl]phenyl]methyl]-2-[3-[(3Z,8S,11R)-11-oxidanyl-7,10-bis(oxidanylidene)-8-propan-2-yl-6,9-diazabicyclo[11.2.2]heptadeca-1(16),3,13(17),14-tetraen-11-yl]propyl]hydrazinyl]-3,3-dimethyl-1-oxidanylidene-butan-2-yl]carbamate

>  <Synonyms>


>  <Type>
non-polymer

>  <Formula>
C40 H55 N5 O6 S

>  <MolecularWeight>
733.96

>  <ModifiedDate>
2014-12-12

>  <Parent>


>  <OneLetterCode>


>  <SubcomponentList>


>  <AmbiguousFlag>
N

>  <InChI>
InChI=1S/C40H55N5O6S/c1-27(2)33-35(46)41-21-8-7-10-28-11-13-29(14-12-28)24-40(50,37(48)42-33)20-9-22-45(44-36(47)34(39(3,4)5)43-38(49)51-6)25-30-15-17-31(18-16-30)32-19-23-52-26-32/h7-8,11-18,23,26-27,32-34,50H,9-10,19-22,24-25H2,1-6H3,(H,41,46)(H,42,48)(H,43,49)(H,44,47)/b8-7-/t32-,33+,34-,40-/m1/s1

>  <InChIKey>
CCIGJYBWBZXKTK-ZFOWIRSQSA-N

>  <SMILES>
CC(C)[C@H]1C(=O)NC/C=C\Cc2ccc(cc2)C[C@@](C(=O)N1)(CCCN(Cc3ccc(cc3)[C@@H]4CC=S=C4)NC(=O)[C@H](C(C)(C)C)NC(=O)OC)O

$$$$
