4YMH_SAH_A_1001
  RCSB PDB08022000313D
Coordinates from PDB:4YMH:A:1001 Model:1 without hydrogens
 26 28  0  0  0  0            999 V2000
   35.0570  270.9920  160.8450   N 0  0  0  0  0  0  0  0  0  0  0  0
   35.6070  271.7730  159.7730   C 0  0  0  0  0  0  0  0  0  0  0  0
   37.1020  271.5180  159.6020   C 0  0  0  0  0  0  0  0  0  0  0  0
   37.9350  271.3650  160.8710   C 0  0  0  0  0  0  0  0  0  0  0  0
   39.6430  271.2590  160.4860   S 0  0  0  0  0  0  0  0  0  0  0  0
   34.9170  271.4720  158.4700   C 0  0  0  0  0  0  0  0  0  0  0  0
   34.9670  272.2710  157.5650   O 0  0  0  0  0  0  0  0  0  0  0  0
   34.3210  270.4130  158.3450   O 0  0  0  0  0  0  0  0  0  0  0  0
   40.2420  271.1180  162.1200   C 0  0  0  0  0  0  0  0  0  0  0  0
   40.1790  272.4030  162.9310   C 0  0  0  0  0  0  0  0  0  0  0  0
   40.5030  272.1230  164.2800   O 0  0  0  0  0  0  0  0  0  0  0  0
   41.1850  273.4330  162.4770   C 0  0  0  0  0  0  0  0  0  0  0  0
   40.5590  274.6660  162.2140   O 0  0  0  0  0  0  0  0  0  0  0  0
   42.1400  273.5670  163.6350   C 0  0  0  0  0  0  0  0  0  0  0  0
   42.6950  274.8380  163.7570   O 0  0  0  0  0  0  0  0  0  0  0  0
   41.3120  273.1370  164.8210   C 0  0  0  0  0  0  0  0  0  0  0  0
   42.1070  272.5930  165.9310   N 0  0  0  0  0  0  0  0  0  0  0  0
   43.1950  271.8480  165.8620   C 0  0  0  0  0  0  0  0  0  0  0  0
   43.6320  271.5380  167.0700   N 0  0  0  0  0  0  0  0  0  0  0  0
   42.8130  272.0840  167.9350   C 0  0  0  0  0  0  0  0  0  0  0  0
   42.6900  272.1370  169.3900   C 0  0  0  0  0  0  0  0  0  0  0  0
   43.5880  271.5180  170.1230   N 0  0  0  0  0  0  0  0  0  0  0  0
   41.6730  272.8030  169.9300   N 0  0  0  0  0  0  0  0  0  0  0  0
   40.7770  273.4050  169.1560   C 0  0  0  0  0  0  0  0  0  0  0  0
   40.8140  273.3980  167.8370   N 0  0  0  0  0  0  0  0  0  0  0  0
   41.7940  272.7640  167.1830   C 0  0  0  0  0  0  0  0  0  0  0  0
  1  2  1  0  0  0  0
  2  3  1  0  0  0  0
  2  6  1  0  0  0  0
  3  4  1  0  0  0  0
  4  5  1  0  0  0  0
  5  9  1  0  0  0  0
  6  7  2  0  0  0  0
  6  8  1  0  0  0  0
  9 10  1  0  0  0  0
 10 11  1  0  0  0  0
 10 12  1  0  0  0  0
 11 16  1  0  0  0  0
 12 13  1  0  0  0  0
 12 14  1  0  0  0  0
 14 15  1  0  0  0  0
 14 16  1  0  0  0  0
 16 17  1  0  0  0  0
 17 18  1  0  0  0  0
 17 26  1  0  0  0  0
 18 19  2  0  0  0  0
 19 20  1  0  0  0  0
 20 21  1  0  0  0  0
 20 26  2  0  0  0  0
 21 22  1  0  0  0  0
 21 23  2  0  0  0  0
 23 24  1  0  0  0  0
 24 25  2  0  0  0  0
 25 26  1  0  0  0  0
M  END
>  <InstanceId>
4YMH_SAH_A_1001

>  <ChemCompId>
SAH

>  <PdbId>
4YMH

>  <ChainId>
A

>  <ResidueNumber>
1001

>  <InsertionCode>


>  <Model>
1

>  <AltIds>


>  <MissingHeavyAtoms>
0

>  <ObservedFormula>
C14 N6 O5 S

>  <Name>
S-ADENOSYL-L-HOMOCYSTEINE

>  <SystematicName>
(2S)-2-amino-4-[[(2S,3S,4R,5R)-5-(6-aminopurin-9-yl)-3,4-dihydroxy-oxolan-2-yl]methylsulfanyl]butanoic acid

>  <Synonyms>


>  <Type>
L-PEPTIDE LINKING

>  <Formula>
C14 H20 N6 O5 S

>  <MolecularWeight>
384.411

>  <ModifiedDate>
2011-06-04

>  <Parent>
CYS

>  <OneLetterCode>
C

>  <SubcomponentList>


>  <AmbiguousFlag>
N

>  <InChI>
InChI=1S/C14H20N6O5S/c15-6(14(23)24)1-2-26-3-7-9(21)10(22)13(25-7)20-5-19-8-11(16)17-4-18-12(8)20/h4-7,9-10,13,21-22H,1-3,15H2,(H,23,24)(H2,16,17,18)/t6-,7+,9+,10+,13+/m0/s1

>  <InChIKey>
ZJUKTBDSGOFHSH-WFMPWKQPSA-N

>  <SMILES>
c1nc(c2c(n1)n(cn2)[C@H]3[C@@H]([C@@H]([C@H](O3)CSCC[C@@H](C(=O)O)N)O)O)N

$$$$
