3Q71_AR6_A_800
  RCSB PDB08012020133D
Coordinates from PDB:3Q71:A:800 Model:1 without hydrogens
 36 39  0  0  0  0            999 V2000
  -26.1410    7.4810  -26.1010   N 0  0  0  0  0  0  0  0  0  0  0  0
  -26.6720    7.7100  -24.9000   C 0  0  0  0  0  0  0  0  0  0  0  0
  -26.2090    8.6540  -24.0750   N 0  0  0  0  0  0  0  0  0  0  0  0
  -25.1560    9.4030  -24.4570   C 0  0  0  0  0  0  0  0  0  0  0  0
  -24.5760    9.1870  -25.6930   C 0  0  0  0  0  0  0  0  0  0  0  0
  -25.0910    8.2070  -26.5250   C 0  0  0  0  0  0  0  0  0  0  0  0
  -24.5250    8.0090  -27.7070   N 0  0  0  0  0  0  0  0  0  0  0  0
  -23.5710   10.0480  -25.8240   N 0  0  0  0  0  0  0  0  0  0  0  0
  -23.5050   10.7840  -24.7170   C 0  0  0  0  0  0  0  0  0  0  0  0
  -24.4680   10.3820  -23.8790   N 0  0  0  0  0  0  0  0  0  0  0  0
  -24.6150   16.1480  -24.0100   P 0  0  0  0  0  0  0  0  0  0  0  0
  -26.4940   17.9730  -22.7600   P 0  0  0  0  0  0  0  0  0  0  0  0
  -24.7700   10.9580  -22.5880   C 0  0  0  0  0  0  0  0  0  0  0  0
  -24.5300   15.6700  -25.3940   O 0  0  0  0  0  0  0  0  0  0  0  0
  -27.9870   17.9130  -22.7760   O 0  0  0  0  0  0  0  0  0  0  0  0
  -26.0790   22.2470  -25.4920   C 0  0  0  0  0  0  0  0  0  0  0  0
  -26.9450   22.9730  -26.2740   O 0  0  0  0  0  0  0  0  0  0  0  0
  -23.6440   11.7200  -21.9370   C 0  0  0  0  0  0  0  0  0  0  0  0
  -22.9660   10.8410  -21.0600   O 0  0  0  0  0  0  0  0  0  0  0  0
  -23.5300   17.0070  -23.4920   O 0  0  0  0  0  0  0  0  0  0  0  0
  -25.7600   17.8200  -21.4870   O 0  0  0  0  0  0  0  0  0  0  0  0
  -24.7130   22.0690  -26.1570   C 0  0  0  0  0  0  0  0  0  0  0  0
  -24.6060   22.9350  -27.2750   O 0  0  0  0  0  0  0  0  0  0  0  0
  -24.4180   12.7600  -21.1380   C 0  0  0  0  0  0  0  0  0  0  0  0
  -24.7260   12.2140  -19.8580   O 0  0  0  0  0  0  0  0  0  0  0  0
  -26.0410   16.8450  -23.8400   O 0  0  0  0  0  0  0  0  0  0  0  0
  -24.7360   20.6480  -26.6490   C 0  0  0  0  0  0  0  0  0  0  0  0
  -25.2790   20.6440  -27.9680   O 0  0  0  0  0  0  0  0  0  0  0  0
  -25.7330   12.9420  -21.9190   C 0  0  0  0  0  0  0  0  0  0  0  0
  -25.6300   12.0370  -23.0310   O 0  0  0  0  0  0  0  0  0  0  0  0
  -25.7870   20.0030  -25.7710   C 0  0  0  0  0  0  0  0  0  0  0  0
  -26.7550   21.0030  -25.5480   O 0  0  0  0  0  0  0  0  0  0  0  0
  -25.8820   14.3940  -22.4160   C 0  0  0  0  0  0  0  0  0  0  0  0
  -24.6810   14.8430  -23.0660   O 0  0  0  0  0  0  0  0  0  0  0  0
  -25.2330   19.5190  -24.4800   C 0  0  0  0  0  0  0  0  0  0  0  0
  -26.2440   19.3660  -23.4990   O 0  0  0  0  0  0  0  0  0  0  0  0
  1  2  2  0  0  0  0
  1  6  1  0  0  0  0
  2  3  1  0  0  0  0
  3  4  2  0  0  0  0
  4  5  1  0  0  0  0
  4 10  1  0  0  0  0
  5  6  2  0  0  0  0
  5  8  1  0  0  0  0
  6  7  1  0  0  0  0
  8  9  2  0  0  0  0
  9 10  1  0  0  0  0
 10 13  1  0  0  0  0
 11 14  1  0  0  0  0
 11 20  2  0  0  0  0
 11 26  1  0  0  0  0
 11 34  1  0  0  0  0
 12 15  1  0  0  0  0
 12 21  2  0  0  0  0
 12 26  1  0  0  0  0
 12 36  1  0  0  0  0
 13 18  1  0  0  0  0
 13 30  1  0  0  0  0
 16 17  1  0  0  0  0
 16 22  1  0  0  0  0
 16 32  1  0  0  0  0
 18 19  1  0  0  0  0
 18 24  1  0  0  0  0
 22 23  1  0  0  0  0
 22 27  1  0  0  0  0
 24 25  1  0  0  0  0
 24 29  1  0  0  0  0
 27 28  1  0  0  0  0
 27 31  1  0  0  0  0
 29 30  1  0  0  0  0
 29 33  1  0  0  0  0
 31 32  1  0  0  0  0
 31 35  1  0  0  0  0
 33 34  1  0  0  0  0
 35 36  1  0  0  0  0
M  END
>  <InstanceId>
3Q71_AR6_A_800

>  <ChemCompId>
AR6

>  <PdbId>
3Q71

>  <ChainId>
A

>  <ResidueNumber>
800

>  <InsertionCode>


>  <Model>
1

>  <AltIds>


>  <MissingHeavyAtoms>
0

>  <ObservedFormula>
C15 N5 O14 P2

>  <Name>
[(2R,3S,4R,5R)-5-(6-AMINOPURIN-9-YL)-3,4-DIHYDROXY-OXOLAN-2-YL]METHYL [HYDROXY-[[(2R,3S,4R,5S)-3,4,5-TRIHYDROXYOXOLAN-2-YL]METHOXY]PHOSPHORYL] HYDROGEN PHOSPHATE

>  <SystematicName>
[[(2R,3S,4R,5R)-5-(6-aminopurin-9-yl)-3,4-bis(oxidanyl)oxolan-2-yl]methoxy-oxidanyl-phosphoryl] [(2R,3S,4R,5S)-3,4,5-tris(oxidanyl)oxolan-2-yl]methyl hydrogen phosphate

>  <Synonyms>
Adenosine-5-Diphosphoribose

>  <Type>
NON-POLYMER

>  <Formula>
C15 H23 N5 O14 P2

>  <MolecularWeight>
559.316

>  <ModifiedDate>
2020-06-17

>  <Parent>


>  <OneLetterCode>


>  <SubcomponentList>


>  <AmbiguousFlag>
N

>  <InChI>
InChI=1S/C15H23N5O14P2/c16-12-7-13(18-3-17-12)20(4-19-7)14-10(23)8(21)5(32-14)1-30-35(26,27)34-36(28,29)31-2-6-9(22)11(24)15(25)33-6/h3-6,8-11,14-15,21-25H,1-2H2,(H,26,27)(H,28,29)(H2,16,17,18)/t5-,6-,8-,9-,10-,11-,14-,15+/m1/s1

>  <InChIKey>
SRNWOUGRCWSEMX-ZQSHOCFMSA-N

>  <SMILES>
c1nc(c2c(n1)n(cn2)[C@H]3[C@@H]([C@@H]([C@H](O3)COP(=O)(O)OP(=O)(O)OC[C@@H]4[C@H]([C@H]([C@H](O4)O)O)O)O)O)N

$$$$
