4K6I_9RA_A_500
  RCSB PDB08012022123D
Coordinates from PDB:4K6I:A:500 Model:1 without hydrogens
 26 28  0  0  0  0            999 V2000
   -9.6200   18.9690   -2.4360   O 0  0  0  0  0  0  0  0  0  0  0  0
   -8.7570   19.6730   -3.0050   C 0  0  0  0  0  0  0  0  0  0  0  0
   -9.0200   20.5530   -3.8510   O 0  0  0  0  0  0  0  0  0  0  0  0
   -7.2810   19.4260   -2.6730   C 0  0  0  0  0  0  0  0  0  0  0  0
   -6.3020   19.7110   -3.6190   C 0  0  0  0  0  0  0  0  0  0  0  0
   -6.9110   18.8430   -1.4650   C 0  0  0  0  0  0  0  0  0  0  0  0
   -5.5790   18.5380   -1.2150   C 0  0  0  0  0  0  0  0  0  0  0  0
   -4.5950   18.8090   -2.1650   C 0  0  0  0  0  0  0  0  0  0  0  0
   -4.9690   19.4030   -3.3660   C 0  0  0  0  0  0  0  0  0  0  0  0
   -3.2740   18.4370   -1.9390   C 0  0  0  0  0  0  0  0  0  0  0  0
   -2.9620   17.6090   -0.8690   C 0  0  0  0  0  0  0  0  0  0  0  0
   -2.2450   18.8670   -2.7790   C 0  0  0  0  0  0  0  0  0  0  0  0
   -1.5010   19.9840   -2.4230   C 0  0  0  0  0  0  0  0  0  0  0  0
   -1.8450   20.7860   -1.1650   C 0  0  0  0  0  0  0  0  0  0  0  0
   -0.4630   20.4020   -3.2460   C 0  0  0  0  0  0  0  0  0  0  0  0
   -1.9320   18.1890   -3.9510   C 0  0  0  0  0  0  0  0  0  0  0  0
   -0.8900   18.6050   -4.7760   C 0  0  0  0  0  0  0  0  0  0  0  0
   -0.6010   17.8050   -6.0500   C 0  0  0  0  0  0  0  0  0  0  0  0
   -0.5480   16.3170   -5.6980   C 0  0  0  0  0  0  0  0  0  0  0  0
   -1.7300   18.0570   -7.0490   C 0  0  0  0  0  0  0  0  0  0  0  0
    0.7280   18.2180   -6.6930   C 0  0  0  0  0  0  0  0  0  0  0  0
    0.8520   19.7370   -6.7160   C 0  0  0  0  0  0  0  0  0  0  0  0
    1.0080   20.2420   -5.2810   C 0  0  0  0  0  0  0  0  0  0  0  0
   -0.1500   19.7300   -4.4180   C 0  0  0  0  0  0  0  0  0  0  0  0
    1.0310   21.7680   -5.2870   C 0  0  0  0  0  0  0  0  0  0  0  0
    2.3210   19.7330   -4.6920   C 0  0  0  0  0  0  0  0  0  0  0  0
  2  1  2  0  0  0  0
  4  2  1  0  0  0  0
  2  3  1  0  0  0  0
  6  4  2  0  0  0  0
  5  4  1  0  0  0  0
  9  5  2  0  0  0  0
  7  6  1  0  0  0  0
  8  7  2  0  0  0  0
 10  8  1  0  0  0  0
  8  9  1  0  0  0  0
 11 10  2  0  0  0  0
 12 10  1  0  0  0  0
 16 12  2  0  0  0  0
 12 13  1  0  0  0  0
 15 13  2  0  0  0  0
 13 14  1  0  0  0  0
 24 15  1  0  0  0  0
 17 16  1  0  0  0  0
 18 17  1  0  0  0  0
 17 24  2  0  0  0  0
 20 18  1  0  0  0  0
 21 18  1  0  0  0  0
 18 19  1  0  0  0  0
 21 22  1  0  0  0  0
 23 22  1  0  0  0  0
 25 23  1  0  0  0  0
 23 24  1  0  0  0  0
 23 26  1  0  0  0  0
M  END
>  <InstanceId>
4K6I_9RA_A_500

>  <ChemCompId>
9RA

>  <PdbId>
4K6I

>  <ChainId>
A

>  <ResidueNumber>
500

>  <InsertionCode>


>  <Model>
1

>  <AltIds>


>  <MissingHeavyAtoms>
0

>  <ObservedFormula>
C24 O2

>  <Name>
4-[1-(3,5,5,8,8-pentamethyl-5,6,7,8-tetrahydronaphthalen-2-yl)ethenyl]benzoic acid

>  <SystematicName>
4-[1-(3,5,5,8,8-pentamethyl-6,7-dihydronaphthalen-2-yl)ethenyl]benzoic acid

>  <Synonyms>


>  <Type>
NON-POLYMER

>  <Formula>
C24 H28 O2

>  <MolecularWeight>
348.478

>  <ModifiedDate>
2011-06-04

>  <Parent>


>  <OneLetterCode>


>  <SubcomponentList>


>  <AmbiguousFlag>
N

>  <InChI>
InChI=1S/C24H28O2/c1-15-13-20-21(24(5,6)12-11-23(20,3)4)14-19(15)16(2)17-7-9-18(10-8-17)22(25)26/h7-10,13-14H,2,11-12H2,1,3-6H3,(H,25,26)

>  <InChIKey>
NAVMQTYZDKMPEU-UHFFFAOYSA-N

>  <SMILES>
Cc1cc2c(cc1C(=C)c3ccc(cc3)C(=O)O)C(CCC2(C)C)(C)C

$$$$
