5I80_67B_A_201
  RCSB PDB08022001413D
Coordinates from PDB:5I80:A:201 Model:1 without hydrogens
 22 24  0  0  0  0            999 V2000
  -14.9500   -0.3860   10.2200   C 0  0  0  0  0  0  0  0  0  0  0  0
  -15.0510   -0.4560    7.7270   C 0  0  0  0  0  0  0  0  0  0  0  0
  -14.6270    0.1380    5.4130   C 0  0  0  0  0  0  0  0  0  0  0  0
  -14.7070   -1.0290   11.4230   C 0  0  0  0  0  0  0  0  0  0  0  0
  -14.3760   -2.4330    9.0980   C 0  0  0  0  0  0  0  0  0  0  0  0
  -13.6580   -4.4860   10.2790   C 0  0  0  0  0  0  0  0  0  0  0  0
  -14.2920   -2.3570   11.4830   C 0  0  0  0  0  0  0  0  0  0  0  0
  -12.6530   -4.8560   11.1250   C 0  0  0  0  0  0  0  0  0  0  0  0
  -11.0340   -6.3960   12.0710   C 0  0  0  0  0  0  0  0  0  0  0  0
  -12.0690   -8.2200   10.3350   O 0  0  0  0  0  0  0  0  0  0  0  0
  -12.5660   -7.0890   10.3080   C 0  0  0  0  0  0  0  0  0  0  0  0
  -12.1340   -6.1180   11.1370   N 0  0  0  0  0  0  0  0  0  0  0  0
  -13.6070   -6.8040    9.4080   C 0  0  0  0  0  0  0  0  0  0  0  0
  -14.2510   -7.5610    8.4690   N 0  0  0  0  0  0  0  0  0  0  0  0
  -15.1900   -6.7880    7.8530   C 0  0  0  0  0  0  0  0  0  0  0  0
  -15.1750   -5.5420    8.3720   C 0  0  0  0  0  0  0  0  0  0  0  0
  -14.1760   -5.5140    9.3660   C 0  0  0  0  0  0  0  0  0  0  0  0
  -14.1310   -3.0770   10.3000   C 0  0  0  0  0  0  0  0  0  0  0  0
  -14.7690   -1.0940    9.0330   C 0  0  0  0  0  0  0  0  0  0  0  0
  -16.1090    0.1290    7.6120   O 0  0  0  0  0  0  0  0  0  0  0  0
  -14.2120   -0.5080    6.6610   N 0  0  0  0  0  0  0  0  0  0  0  0
  -12.8920   -1.1610    6.6730   C 0  0  0  0  0  0  0  0  0  0  0  0
 15 14  1  0  0  0  0
 15 16  2  0  0  0  0
 14 13  1  0  0  0  0
 16 17  1  0  0  0  0
 13 17  2  0  0  0  0
 13 11  1  0  0  0  0
 17  6  1  0  0  0  0
 10 11  2  0  0  0  0
 11 12  1  0  0  0  0
  7  4  2  0  0  0  0
  7 18  1  0  0  0  0
  4  1  1  0  0  0  0
  6 18  1  0  0  0  0
  6  8  2  0  0  0  0
 18  5  2  0  0  0  0
 12  8  1  0  0  0  0
 12  9  1  0  0  0  0
  1 19  2  0  0  0  0
  5 19  1  0  0  0  0
 19  2  1  0  0  0  0
  2 20  2  0  0  0  0
  2 21  1  0  0  0  0
  3 21  1  0  0  0  0
 21 22  1  0  0  0  0
M  END
>  <InstanceId>
5I80_67B_A_201

>  <ChemCompId>
67B

>  <PdbId>
5I80

>  <ChainId>
A

>  <ResidueNumber>
201

>  <InsertionCode>


>  <Model>
1

>  <AltIds>


>  <MissingHeavyAtoms>
0

>  <ObservedFormula>
C17 N3 O2

>  <Name>
N,N-dimethyl-3-(6-methyl-7-oxo-6,7-dihydro-1H-pyrrolo[2,3-c]pyridin-4-yl)benzamide

>  <SystematicName>
~{N},~{N}-dimethyl-3-(6-methyl-7-oxidanylidene-1~{H}-pyrrolo[2,3-c]pyridin-4-yl)benzamide

>  <Synonyms>


>  <Type>
NON-POLYMER

>  <Formula>
C17 H17 N3 O2

>  <MolecularWeight>
295.336

>  <ModifiedDate>
2016-06-03

>  <Parent>


>  <OneLetterCode>


>  <SubcomponentList>


>  <AmbiguousFlag>
N

>  <InChI>
InChI=1S/C17H17N3O2/c1-19(2)16(21)12-6-4-5-11(9-12)14-10-20(3)17(22)15-13(14)7-8-18-15/h4-10,18H,1-3H3

>  <InChIKey>
YHMNROQTPUKNLA-UHFFFAOYSA-N

>  <SMILES>
CN1C=C(c2cc[nH]c2C1=O)c3cccc(c3)C(=O)N(C)C

$$$$
