4Q46_GDP_A_501
  RCSB PDB08012022573D
Coordinates from PDB:4Q46:A:501 Model:1 without hydrogens
 28 30  0  0  0  0            999 V2000
   28.2360    2.7640    4.9840   P 0  0  0  0  0  0  0  0  0  0  0  0
   28.6530    3.8050    5.9720   O 0  0  0  0  0  0  0  0  0  0  0  0
   29.0950    1.5350    5.1540   O 0  0  0  0  0  0  0  0  0  0  0  0
   28.2870    3.3730    3.6430   O 0  0  0  0  0  0  0  0  0  0  0  0
   26.8440    2.1280    5.4530   O 0  0  0  0  0  0  0  0  0  0  0  0
   25.4440    2.7230    5.7600   P 0  0  0  0  0  0  0  0  0  0  0  0
   25.4010    4.0650    6.4690   O 0  0  0  0  0  0  0  0  0  0  0  0
   24.6610    1.6190    6.3590   O 0  0  0  0  0  0  0  0  0  0  0  0
   24.7150    2.9790    4.3680   O 0  0  0  0  0  0  0  0  0  0  0  0
   24.6260    1.9550    3.3680   C 0  0  0  0  0  0  0  0  0  0  0  0
   23.5790    2.4410    2.3320   C 0  0  0  0  0  0  0  0  0  0  0  0
   23.6930    1.5370    1.2180   O 0  0  0  0  0  0  0  0  0  0  0  0
   22.1560    2.2850    2.8170   C 0  0  0  0  0  0  0  0  0  0  0  0
   21.3940    3.3940    2.2310   O 0  0  0  0  0  0  0  0  0  0  0  0
   21.7690    0.8650    2.2780   C 0  0  0  0  0  0  0  0  0  0  0  0
   20.3700    0.7420    2.0600   O 0  0  0  0  0  0  0  0  0  0  0  0
   22.4290    0.9710    0.8820   C 0  0  0  0  0  0  0  0  0  0  0  0
   22.7360   -0.3490    0.2970   N 0  0  0  0  0  0  0  0  0  0  0  0
   23.1130   -1.5530    0.9050   C 0  0  0  0  0  0  0  0  0  0  0  0
   23.3370   -2.4650   -0.1060   N 0  0  0  0  0  0  0  0  0  0  0  0
   23.1500   -1.8360   -1.3120   C 0  0  0  0  0  0  0  0  0  0  0  0
   23.2800   -2.2450   -2.7290   C 0  0  0  0  0  0  0  0  0  0  0  0
   23.6180   -3.4370   -3.0000   O 0  0  0  0  0  0  0  0  0  0  0  0
   23.0420   -1.3060   -3.6680   N 0  0  0  0  0  0  0  0  0  0  0  0
   22.6680   -0.0170   -3.3780   C 0  0  0  0  0  0  0  0  0  0  0  0
   22.4220    0.8780   -4.3640   N 0  0  0  0  0  0  0  0  0  0  0  0
   22.5200    0.4250   -2.0760   N 0  0  0  0  0  0  0  0  0  0  0  0
   22.7700   -0.4690   -1.0450   C 0  0  0  0  0  0  0  0  0  0  0  0
  1  2  2  0  0  0  0
  1  3  1  0  0  0  0
  1  4  1  0  0  0  0
  1  5  1  0  0  0  0
  5  6  1  0  0  0  0
  6  7  2  0  0  0  0
  6  8  1  0  0  0  0
  6  9  1  0  0  0  0
  9 10  1  0  0  0  0
 10 11  1  0  0  0  0
 11 12  1  0  0  0  0
 11 13  1  0  0  0  0
 12 17  1  0  0  0  0
 13 14  1  0  0  0  0
 13 15  1  0  0  0  0
 15 16  1  0  0  0  0
 15 17  1  0  0  0  0
 17 18  1  0  0  0  0
 18 19  1  0  0  0  0
 18 28  1  0  0  0  0
 19 20  2  0  0  0  0
 20 21  1  0  0  0  0
 21 22  1  0  0  0  0
 21 28  2  0  0  0  0
 22 23  2  0  0  0  0
 22 24  1  0  0  0  0
 24 25  1  0  0  0  0
 25 26  1  0  0  0  0
 25 27  2  0  0  0  0
 27 28  1  0  0  0  0
M  END
>  <InstanceId>
4Q46_GDP_A_501

>  <ChemCompId>
GDP

>  <PdbId>
4Q46

>  <ChainId>
A

>  <ResidueNumber>
501

>  <InsertionCode>


>  <Model>
1

>  <AltIds>


>  <MissingHeavyAtoms>
0

>  <ObservedFormula>
C10 N5 O11 P2

>  <Name>
GUANOSINE-5'-DIPHOSPHATE

>  <SystematicName>
[(2R,3S,4R,5R)-5-(2-azanyl-6-oxidanylidene-1H-purin-9-yl)-3,4-bis(oxidanyl)oxolan-2-yl]methyl phosphono hydrogen phosphate

>  <Synonyms>


>  <Type>
RNA LINKING

>  <Formula>
C10 H15 N5 O11 P2

>  <MolecularWeight>
443.201

>  <ModifiedDate>
2014-05-12

>  <Parent>
G

>  <OneLetterCode>
G

>  <SubcomponentList>


>  <AmbiguousFlag>
N

>  <InChI>
InChI=1S/C10H15N5O11P2/c11-10-13-7-4(8(18)14-10)12-2-15(7)9-6(17)5(16)3(25-9)1-24-28(22,23)26-27(19,20)21/h2-3,5-6,9,16-17H,1H2,(H,22,23)(H2,19,20,21)(H3,11,13,14,18)/t3-,5-,6-,9-/m1/s1

>  <InChIKey>
QGWNDRXFNXRZMB-UUOKFMHZSA-N

>  <SMILES>
c1nc2c(n1[C@H]3[C@@H]([C@@H]([C@H](O3)CO[P@](=O)(O)OP(=O)(O)O)O)O)N=C(NC2=O)N

$$$$
