3OHI_HDX_A_341
  RCSB PDB08012020023D
Coordinates from PDB:3OHI:A:341 Model:1 without hydrogens
 20 20  0  0  0  0            999 V2000
   12.2380    0.3020   18.7040   O 0  0  0  0  0  0  0  0  0  0  0  0
   16.4910   -0.2610   15.8380   O 0  0  0  0  0  0  0  0  0  0  0  0
   12.8300    6.8690   12.7400   O 0  0  0  0  0  0  0  0  0  0  0  0
   10.1610    1.6330   17.5720   O 0  0  0  0  0  0  0  0  0  0  0  0
   16.8360    1.9430   16.9980   O 0  0  0  0  0  0  0  0  0  0  0  0
   17.3410   -0.2380   18.1950   O 0  0  0  0  0  0  0  0  0  0  0  0
   10.8320    5.9230   11.4430   O 0  0  0  0  0  0  0  0  0  0  0  0
   10.4350    7.1640   13.5850   O 0  0  0  0  0  0  0  0  0  0  0  0
   13.0210    2.5430   15.4500   C 0  0  0  0  0  0  0  0  0  0  0  0
   14.0410    1.8270   16.0800   C 0  0  0  0  0  0  0  0  0  0  0  0
   11.0940    4.7620   14.9800   C 0  0  0  0  0  0  0  0  0  0  0  0
   10.6470    3.3060   15.2060   C 0  0  0  0  0  0  0  0  0  0  0  0
   14.8410    0.3150   17.8360   C 0  0  0  0  0  0  0  0  0  0  0  0
   11.5880    4.9530   13.6370   O 0  0  0  0  0  0  0  0  0  0  0  0
   12.4630    0.9980   17.6790   C 0  0  0  0  0  0  0  0  0  0  0  0
   11.7110    2.4970   15.9320   C 0  0  0  0  0  0  0  0  0  0  0  0
   11.4270    1.7120   17.0560   C 0  0  0  0  0  0  0  0  0  0  0  0
   13.7910    1.0710   17.1650   N 0  0  0  0  0  0  0  0  0  0  0  0
   16.4920    0.4860   17.1530   P 0  0  0  0  0  0  0  0  0  0  0  0
   11.4100    6.3300   12.7850   P 0  0  0  0  0  0  0  0  0  0  0  0
  1 15  2  0  0  0  0
  2 19  1  0  0  0  0
  3 20  1  0  0  0  0
  4 17  1  0  0  0  0
  5 19  2  0  0  0  0
  6 19  1  0  0  0  0
  7 20  1  0  0  0  0
  8 20  2  0  0  0  0
  9 10  2  0  0  0  0
  9 16  1  0  0  0  0
 10 18  1  0  0  0  0
 11 12  1  0  0  0  0
 11 14  1  0  0  0  0
 12 16  1  0  0  0  0
 13 18  1  0  0  0  0
 13 19  1  0  0  0  0
 14 20  1  0  0  0  0
 15 17  1  0  0  0  0
 15 18  1  0  0  0  0
 16 17  2  0  0  0  0
M  END
>  <InstanceId>
3OHI_HDX_A_341

>  <ChemCompId>
HDX

>  <PdbId>
3OHI

>  <ChainId>
A

>  <ResidueNumber>
341

>  <InsertionCode>


>  <Model>
1

>  <AltIds>


>  <MissingHeavyAtoms>
0

>  <ObservedFormula>
C8 N O9 P2

>  <Name>
({3-hydroxy-2-oxo-4-[2-(phosphonooxy)ethyl]pyridin-1(2H)-yl}methyl)phosphonic acid

>  <SystematicName>
[3-hydroxy-2-oxo-4-(2-phosphonooxyethyl)pyridin-1-yl]methylphosphonic acid

>  <Synonyms>


>  <Type>
NON-POLYMER

>  <Formula>
C8 H13 N O9 P2

>  <MolecularWeight>
329.138

>  <ModifiedDate>
2011-06-04

>  <Parent>


>  <OneLetterCode>


>  <SubcomponentList>


>  <AmbiguousFlag>
N

>  <InChI>
InChI=1S/C8H13NO9P2/c10-7-6(2-4-18-20(15,16)17)1-3-9(8(7)11)5-19(12,13)14/h1,3,10H,2,4-5H2,(H2,12,13,14)(H2,15,16,17)

>  <InChIKey>
RMAJJEZWSTVCSS-UHFFFAOYSA-N

>  <SMILES>
C1=CN(C(=O)C(=C1CCOP(=O)(O)O)O)CP(=O)(O)O

$$$$
