1D6V_HOP_H_401
  RCSB PDB08012014443D
Coordinates from PDB:1D6V:H:401 Model:1 without hydrogens
 28 30  0  0  0  0            999 V2000
   11.2940    8.1470    0.6440   C 0  0  0  0  0  0  0  0  0  0  0  0
   10.2580    7.5140   -0.1120   C 0  0  0  0  0  0  0  0  0  0  0  0
   11.8120    9.4030    0.2350   C 0  0  0  0  0  0  0  0  0  0  0  0
   11.3050   10.0420   -0.9300   C 0  0  0  0  0  0  0  0  0  0  0  0
   10.2600    9.4190   -1.7040   C 0  0  0  0  0  0  0  0  0  0  0  0
    9.7490    8.1450   -1.2790   C 0  0  0  0  0  0  0  0  0  0  0  0
    9.7100   10.0840   -2.9860   C 0  0  0  0  0  0  0  0  0  0  0  0
   10.7980   10.8910   -3.7860   C 0  0  0  0  0  0  0  0  0  0  0  0
   10.2490   11.5620   -5.0690   C 0  0  0  0  0  0  0  0  0  0  0  0
    9.0570   12.5180   -4.7100   C 0  0  0  0  0  0  0  0  0  0  0  0
    7.9250   11.6920   -3.9550   C 0  0  0  0  0  0  0  0  0  0  0  0
    8.4760   11.0080   -2.6630   C 0  0  0  0  0  0  0  0  0  0  0  0
    8.4910   13.2160   -6.0100   C 0  0  0  0  0  0  0  0  0  0  0  0
    9.1060   14.4380   -6.4700   C 0  0  0  0  0  0  0  0  0  0  0  0
    8.6300   15.0920   -7.6120   C 0  0  0  0  0  0  0  0  0  0  0  0
    7.5150   14.5600   -8.3470   C 0  0  0  0  0  0  0  0  0  0  0  0
    6.9200   13.3420   -7.8940   C 0  0  0  0  0  0  0  0  0  0  0  0
    7.3900   12.6670   -6.7420   C 0  0  0  0  0  0  0  0  0  0  0  0
   11.3230   12.2680   -5.7340   O 0  0  0  0  0  0  0  0  0  0  0  0
    7.0300   15.2630   -9.5770   C 0  0  0  0  0  0  0  0  0  0  0  0
    5.9330   14.9560  -10.0620   O 0  0  0  0  0  0  0  0  0  0  0  0
    7.8270   16.2400  -10.1200   N 0  0  0  0  0  0  0  0  0  0  0  0
    7.5630   17.1070  -11.3090   C 0  0  0  0  0  0  0  0  0  0  0  0
    8.6300   18.2450  -11.3710   C 0  0  0  0  0  0  0  0  0  0  0  0
    9.4940   18.3250  -10.0860   C 0  0  0  0  0  0  0  0  0  0  0  0
   10.4590   19.4890  -10.0280   C 0  0  0  0  0  0  0  0  0  0  0  0
   11.4120   19.6240  -10.8120   O 0  0  0  0  0  0  0  0  0  0  0  0
   10.1590   20.3660   -8.9880   O 0  0  0  0  0  0  0  0  0  0  0  0
  1  2  1  0  0  0  0
  1  3  2  0  0  0  0
  2  6  2  0  0  0  0
  3  4  1  0  0  0  0
  4  5  2  0  0  0  0
  5  6  1  0  0  0  0
  5  7  1  0  0  0  0
  7  8  1  0  0  0  0
  7 12  1  0  0  0  0
  8  9  1  0  0  0  0
  9 10  1  0  0  0  0
  9 19  1  0  0  0  0
 10 11  1  0  0  0  0
 10 13  1  0  0  0  0
 11 12  1  0  0  0  0
 13 14  2  0  0  0  0
 13 18  1  0  0  0  0
 14 15  1  0  0  0  0
 15 16  2  0  0  0  0
 16 17  1  0  0  0  0
 16 20  1  0  0  0  0
 17 18  2  0  0  0  0
 20 21  2  0  0  0  0
 20 22  1  0  0  0  0
 22 23  1  0  0  0  0
 23 24  1  0  0  0  0
 24 25  1  0  0  0  0
 25 26  1  0  0  0  0
 26 27  2  0  0  0  0
 26 28  1  0  0  0  0
M  END
>  <InstanceId>
1D6V_HOP_H_401

>  <ChemCompId>
HOP

>  <PdbId>
1D6V

>  <ChainId>
H

>  <ResidueNumber>
401

>  <InsertionCode>


>  <Model>
1

>  <AltIds>


>  <MissingHeavyAtoms>
0

>  <ObservedFormula>
C23 N O4

>  <Name>
(1S,2S,5S)2-(4-GLUTARIDYLBENZYL)-5-PHENYL-1-CYCLOHEXANOL

>  <SystematicName>
4-[[4-[(1R,2S,4S)-2-hydroxy-4-phenyl-cyclohexyl]phenyl]carbonylamino]butanoic acid

>  <Synonyms>
OXY-COPE-HAPTEN

>  <Type>
NON-POLYMER

>  <Formula>
C23 H27 N O4

>  <MolecularWeight>
381.465

>  <ModifiedDate>
2011-06-04

>  <Parent>


>  <OneLetterCode>


>  <SubcomponentList>


>  <AmbiguousFlag>
N

>  <InChI>
InChI=1S/C23H27NO4/c25-21-15-19(16-5-2-1-3-6-16)12-13-20(21)17-8-10-18(11-9-17)23(28)24-14-4-7-22(26)27/h1-3,5-6,8-11,19-21,25H,4,7,12-15H2,(H,24,28)(H,26,27)/t19-,20+,21-/m0/s1

>  <InChIKey>
OBWILOKKNDYPLX-HBMCJLEFSA-N

>  <SMILES>
c1ccc(cc1)[C@H]2CC[C@@H]([C@H](C2)O)c3ccc(cc3)C(=O)NCCCC(=O)O

$$$$
