4R74_F6P_A_401
  RCSB PDB08012023073D
Coordinates from PDB:4R74:A:401 Model:1 without hydrogens
 16 16  0  0  0  0            999 V2000
  -11.2630   21.8490   -9.7360   O 0  0  0  0  0  0  0  0  0  0  0  0
  -10.8400   23.1210   -9.4030   C 0  0  0  0  0  0  0  0  0  0  0  0
   -9.6390   23.1860   -8.5060   C 0  0  0  0  0  0  0  0  0  0  0  0
  -10.0160   22.8390   -7.2150   O 0  0  0  0  0  0  0  0  0  0  0  0
   -9.0480   24.5150   -8.4750   C 0  0  0  0  0  0  0  0  0  0  0  0
   -9.4350   25.2050   -7.3460   O 0  0  0  0  0  0  0  0  0  0  0  0
   -7.6010   24.2350   -8.4380   C 0  0  0  0  0  0  0  0  0  0  0  0
   -6.9220   25.3190   -8.9390   O 0  0  0  0  0  0  0  0  0  0  0  0
   -7.5190   23.0710   -9.3640   C 0  0  0  0  0  0  0  0  0  0  0  0
   -8.5980   22.2720   -9.0200   O 0  0  0  0  0  0  0  0  0  0  0  0
   -6.2610   22.2660   -9.3140   C 0  0  0  0  0  0  0  0  0  0  0  0
   -6.3030   21.1590  -10.1390   O 0  0  0  0  0  0  0  0  0  0  0  0
   -5.2630   20.0030  -10.0570   P 0  0  0  0  0  0  0  0  0  0  0  0
   -3.9000   20.5230  -10.4440   O 0  0  0  0  0  0  0  0  0  0  0  0
   -5.2180   19.4410   -8.6580   O 0  0  0  0  0  0  0  0  0  0  0  0
   -5.6800   18.9170  -11.0220   O 0  0  0  0  0  0  0  0  0  0  0  0
  1  2  1  0  0  0  0
  2  3  1  0  0  0  0
  3  4  1  0  0  0  0
  3  5  1  0  0  0  0
  3 10  1  0  0  0  0
  5  6  1  0  0  0  0
  5  7  1  0  0  0  0
  7  8  1  0  0  0  0
  7  9  1  0  0  0  0
  9 10  1  0  0  0  0
  9 11  1  0  0  0  0
 11 12  1  0  0  0  0
 12 13  1  0  0  0  0
 13 14  2  0  0  0  0
 13 15  1  0  0  0  0
 13 16  1  0  0  0  0
M  END
>  <InstanceId>
4R74_F6P_A_401

>  <ChemCompId>
F6P

>  <PdbId>
4R74

>  <ChainId>
A

>  <ResidueNumber>
401

>  <InsertionCode>


>  <Model>
1

>  <AltIds>


>  <MissingHeavyAtoms>
0

>  <ObservedFormula>
C6 O9 P

>  <Name>
6-O-phosphono-beta-D-fructofuranose

>  <SystematicName>
[(2R,3S,4S,5R)-3,4,5-trihydroxy-5-(hydroxymethyl)oxolan-2-yl]methyl dihydrogen phosphate

>  <Synonyms>
FRUCTOSE-6-PHOSPHATE; 6-O-phosphono-beta-D-fructose; 6-O-phosphono-D-fructose; 6-O-phosphono-fructose

>  <Type>
D-saccharide, beta linking

>  <Formula>
C6 H13 O9 P

>  <MolecularWeight>
260.136

>  <ModifiedDate>
2020-07-17

>  <Parent>
FRU

>  <OneLetterCode>


>  <SubcomponentList>


>  <AmbiguousFlag>
N

>  <InChI>
InChI=1S/C6H13O9P/c7-2-6(10)5(9)4(8)3(15-6)1-14-16(11,12)13/h3-5,7-10H,1-2H2,(H2,11,12,13)/t3-,4-,5+,6-/m1/s1

>  <InChIKey>
BGWGXPAPYGQALX-ARQDHWQXSA-N

>  <SMILES>
C([C@@H]1[C@H]([C@@H]([C@](O1)(CO)O)O)O)OP(=O)(O)O

$$$$
