5ECT_DUP_A_201
  RCSB PDB08022001123D
Coordinates from PDB:5ECT:A:201 Model:1 without hydrogens
 28 29  0  0  0  0            999 V2000
  -16.6890   14.9450   -0.0470   O 0  0  0  0  0  0  0  0  0  0  0  0
  -15.8510   14.1530    0.4390   C 0  0  0  0  0  0  0  0  0  0  0  0
  -16.2350   12.8950    0.9380   C 0  0  0  0  0  0  0  0  0  0  0  0
  -15.2660   12.0900    1.4580   C 0  0  0  0  0  0  0  0  0  0  0  0
  -14.5480   14.5610    0.4920   N 0  0  0  0  0  0  0  0  0  0  0  0
  -13.6190   13.8050    1.0670   C 0  0  0  0  0  0  0  0  0  0  0  0
  -12.4380   14.2440    1.0780   O 0  0  0  0  0  0  0  0  0  0  0  0
  -13.9590   12.5470    1.5500   N 0  0  0  0  0  0  0  0  0  0  0  0
  -12.9400   11.6780    2.1910   C 0  0  0  0  0  0  0  0  0  0  0  0
  -13.1030   11.6980    3.7240   C 0  0  0  0  0  0  0  0  0  0  0  0
  -13.8630   10.4430    4.0170   C 0  0  0  0  0  0  0  0  0  0  0  0
  -13.5940    9.9700    5.3410   O 0  0  0  0  0  0  0  0  0  0  0  0
  -13.1200   10.3360    1.7870   O 0  0  0  0  0  0  0  0  0  0  0  0
  -13.3100    9.5070    2.9430   C 0  0  0  0  0  0  0  0  0  0  0  0
  -14.1760    8.3580    2.5670   C 0  0  0  0  0  0  0  0  0  0  0  0
  -15.4690    8.8620    2.1230   O 0  0  0  0  0  0  0  0  0  0  0  0
  -16.5420    7.7830    1.5350   P 0  0  0  0  0  0  0  0  0  0  0  0
  -17.7800    8.5870    1.1060   O 0  0  0  0  0  0  0  0  0  0  0  0
  -16.7800    6.7120    2.5690   O 0  0  0  0  0  0  0  0  0  0  0  0
  -15.7600    7.1370    0.2020   N 0  0  0  0  0  0  0  0  0  0  0  0
  -15.5710    5.5270   -0.1820   P 0  0  0  0  0  0  0  0  0  0  0  0
  -15.5680    5.4310   -1.7020   O 0  0  0  0  0  0  0  0  0  0  0  0
  -16.5750    4.6760    0.5540   O 0  0  0  0  0  0  0  0  0  0  0  0
  -14.0950    5.1340    0.2920   O 0  0  0  0  0  0  0  0  0  0  0  0
  -13.6120    4.3720    1.6260   P 0  0  0  0  0  0  0  0  0  0  0  0
  -13.3280    2.9740    1.2210   O 0  0  0  0  0  0  0  0  0  0  0  0
  -14.6760    4.5720    2.6920   O 0  0  0  0  0  0  0  0  0  0  0  0
  -12.3000    5.0910    1.9600   O 0  0  0  0  0  0  0  0  0  0  0  0
  1  2  2  0  0  0  0
  2  3  1  0  0  0  0
  2  5  1  0  0  0  0
  3  4  2  0  0  0  0
  4  8  1  0  0  0  0
  5  6  1  0  0  0  0
  6  7  2  0  0  0  0
  6  8  1  0  0  0  0
  8  9  1  0  0  0  0
  9 10  1  0  0  0  0
  9 13  1  0  0  0  0
 10 11  1  0  0  0  0
 11 12  1  0  0  0  0
 11 14  1  0  0  0  0
 13 14  1  0  0  0  0
 14 15  1  0  0  0  0
 15 16  1  0  0  0  0
 16 17  1  0  0  0  0
 17 18  2  0  0  0  0
 17 19  1  0  0  0  0
 17 20  1  0  0  0  0
 20 21  1  0  0  0  0
 21 22  2  0  0  0  0
 21 23  1  0  0  0  0
 21 24  1  0  0  0  0
 24 25  1  0  0  0  0
 25 26  2  0  0  0  0
 25 27  1  0  0  0  0
 25 28  1  0  0  0  0
M  END
>  <InstanceId>
5ECT_DUP_A_201

>  <ChemCompId>
DUP

>  <PdbId>
5ECT

>  <ChainId>
A

>  <ResidueNumber>
201

>  <InsertionCode>


>  <Model>
1

>  <AltIds>


>  <MissingHeavyAtoms>
0

>  <ObservedFormula>
C9 N3 O13 P3

>  <Name>
2'-DEOXYURIDINE 5'-ALPHA,BETA-IMIDO-TRIPHOSPHATE

>  <SystematicName>
[(2R,3S,5R)-5-(2,4-dioxopyrimidin-1-yl)-3-hydroxy-oxolan-2-yl]methoxy-N-(hydroxy-phosphonooxy-phosphoryl)phosphonamidic acid

>  <Synonyms>


>  <Type>
NON-POLYMER

>  <Formula>
C9 H16 N3 O13 P3

>  <MolecularWeight>
467.157

>  <ModifiedDate>
2011-06-04

>  <Parent>


>  <OneLetterCode>


>  <SubcomponentList>


>  <AmbiguousFlag>
N

>  <InChI>
InChI=1S/C9H16N3O13P3/c13-5-3-8(12-2-1-7(14)10-9(12)15)24-6(5)4-23-26(16,17)11-27(18,19)25-28(20,21)22/h1-2,5-6,8,13H,3-4H2,(H,10,14,15)(H2,20,21,22)(H3,11,16,17,18,19)/t5-,6+,8+/m0/s1

>  <InChIKey>
XZLLMTSKYYYJLH-SHYZEUOFSA-N

>  <SMILES>
C1[C@@H]([C@H](O[C@H]1N2C=CC(=O)NC2=O)CO[P@](=O)(N[P@@](=O)(O)OP(=O)(O)O)O)O

$$$$
