1P19_IMP_A_1300
  RCSB PDB08012015413D
Coordinates from PDB:1P19:A:1300 Model:1 without hydrogens
 23 25  0  0  0  0            999 V2000
   70.3090   39.1240   36.1390   P 0  0  0  0  0  0  0  0  0  0  0  0
   70.6410   40.4980   36.6280   O 0  0  0  0  0  0  0  0  0  0  0  0
   71.0580   38.1060   36.9580   O 0  0  0  0  0  0  0  0  0  0  0  0
   68.7850   38.8370   36.2130   O 0  0  0  0  0  0  0  0  0  0  0  0
   70.7180   38.9220   34.5620   O 0  0  0  0  0  0  0  0  0  0  0  0
   69.9780   39.6720   33.5770   C 0  0  0  0  0  0  0  0  0  0  0  0
   70.3860   39.5600   32.1180   C 0  0  0  0  0  0  0  0  0  0  0  0
   70.8550   40.9170   31.8510   O 0  0  0  0  0  0  0  0  0  0  0  0
   71.5260   38.6750   31.6120   C 0  0  0  0  0  0  0  0  0  0  0  0
   71.1570   37.3580   31.2900   O 0  0  0  0  0  0  0  0  0  0  0  0
   72.0440   39.4210   30.3970   C 0  0  0  0  0  0  0  0  0  0  0  0
   71.2750   39.2470   29.2110   O 0  0  0  0  0  0  0  0  0  0  0  0
   71.9710   40.8610   30.9630   C 0  0  0  0  0  0  0  0  0  0  0  0
   73.1650   41.0940   31.8020   N 0  0  0  0  0  0  0  0  0  0  0  0
   73.3820   40.9260   33.1510   C 0  0  0  0  0  0  0  0  0  0  0  0
   74.5870   41.2510   33.4910   N 0  0  0  0  0  0  0  0  0  0  0  0
   75.1990   41.6500   32.3320   C 0  0  0  0  0  0  0  0  0  0  0  0
   76.5220   42.1170   32.0740   C 0  0  0  0  0  0  0  0  0  0  0  0
   77.4370   42.2690   32.8700   O 0  0  0  0  0  0  0  0  0  0  0  0
   76.7590   42.4310   30.7160   N 0  0  0  0  0  0  0  0  0  0  0  0
   75.7790   42.2890   29.7420   C 0  0  0  0  0  0  0  0  0  0  0  0
   74.5350   41.8470   29.9950   N 0  0  0  0  0  0  0  0  0  0  0  0
   74.3260   41.5570   31.2750   C 0  0  0  0  0  0  0  0  0  0  0  0
  1  2  2  0  0  0  0
  1  3  1  0  0  0  0
  1  4  1  0  0  0  0
  1  5  1  0  0  0  0
  5  6  1  0  0  0  0
  6  7  1  0  0  0  0
  7  8  1  0  0  0  0
  7  9  1  0  0  0  0
  8 13  1  0  0  0  0
  9 10  1  0  0  0  0
  9 11  1  0  0  0  0
 11 12  1  0  0  0  0
 11 13  1  0  0  0  0
 13 14  1  0  0  0  0
 14 15  1  0  0  0  0
 14 23  1  0  0  0  0
 15 16  2  0  0  0  0
 16 17  1  0  0  0  0
 17 18  1  0  0  0  0
 17 23  2  0  0  0  0
 18 19  2  0  0  0  0
 18 20  1  0  0  0  0
 20 21  1  0  0  0  0
 21 22  2  0  0  0  0
 22 23  1  0  0  0  0
M  END
>  <InstanceId>
1P19_IMP_A_1300

>  <ChemCompId>
IMP

>  <PdbId>
1P19

>  <ChainId>
A

>  <ResidueNumber>
1300

>  <InsertionCode>


>  <Model>
1

>  <AltIds>


>  <MissingHeavyAtoms>
0

>  <ObservedFormula>
C10 N4 O8 P

>  <Name>
INOSINIC ACID

>  <SystematicName>
[(2R,3S,4R,5R)-3,4-dihydroxy-5-(6-oxo-1H-purin-9-yl)oxolan-2-yl]methyl dihydrogen phosphate

>  <Synonyms>


>  <Type>
NON-POLYMER

>  <Formula>
C10 H13 N4 O8 P

>  <MolecularWeight>
348.206

>  <ModifiedDate>
2012-01-05

>  <Parent>
G

>  <OneLetterCode>


>  <SubcomponentList>


>  <AmbiguousFlag>
N

>  <InChI>
InChI=1S/C10H13N4O8P/c15-6-4(1-21-23(18,19)20)22-10(7(6)16)14-3-13-5-8(14)11-2-12-9(5)17/h2-4,6-7,10,15-16H,1H2,(H,11,12,17)(H2,18,19,20)/t4-,6-,7-,10-/m1/s1

>  <InChIKey>
GRSZFWQUAKGDAV-KQYNXXCUSA-N

>  <SMILES>
c1nc2c(n1[C@H]3[C@@H]([C@@H]([C@H](O3)COP(=O)(O)O)O)O)N=CNC2=O

$$$$
