3HKY_IX6_A_579
  RCSB PDB08012019133D
Coordinates from PDB:3HKY:A:579 Model:1 without hydrogens
 41 45  0  0  0  0            999 V2000
  -20.9700   -6.8890   30.0110   C 0  0  0  0  0  0  0  0  0  0  0  0
  -21.2050   -7.9020   29.1370   C 0  0  0  0  0  0  0  0  0  0  0  0
  -22.4730   -8.0580   28.6180   C 0  0  0  0  0  0  0  0  0  0  0  0
  -23.5340   -7.1800   28.9510   C 0  0  0  0  0  0  0  0  0  0  0  0
  -23.2880   -6.1760   29.8640   C 0  0  0  0  0  0  0  0  0  0  0  0
  -21.9900   -6.0320   30.3520   C 0  0  0  0  0  0  0  0  0  0  0  0
  -25.9050   -7.5850   29.4360   C 0  0  0  0  0  0  0  0  0  0  0  0
  -26.1560   -3.8790   30.8510   C 0  0  0  0  0  0  0  0  0  0  0  0
  -25.3220   -8.1380   31.8820   C 0  0  0  0  0  0  0  0  0  0  0  0
  -25.4360   -8.5240   30.5520   C 0  0  0  0  0  0  0  0  0  0  0  0
  -24.8830   -9.0210   32.8360   C 0  0  0  0  0  0  0  0  0  0  0  0
  -24.5360  -10.3200   32.4850   C 0  0  0  0  0  0  0  0  0  0  0  0
  -25.0630   -9.8180   30.2090   C 0  0  0  0  0  0  0  0  0  0  0  0
  -27.5460   -4.7180   32.7690   C 0  0  0  0  0  0  0  0  0  0  0  0
  -26.4480  -11.6600   34.9110   C 0  0  0  0  0  0  0  0  0  0  0  0
  -21.7470   -5.0430   31.2170   O 0  0  0  0  0  0  0  0  0  0  0  0
  -24.9730   -7.4020   27.0590   C 0  0  0  0  0  0  0  0  0  0  0  0
  -24.0840   -6.8280   26.0350   C 0  0  0  0  0  0  0  0  0  0  0  0
  -23.6240   -5.5390   25.9520   C 0  0  0  0  0  0  0  0  0  0  0  0
  -22.8310   -6.5350   24.3970   C 0  0  0  0  0  0  0  0  0  0  0  0
  -22.0150   -6.7640   23.1450   C 0  0  0  0  0  0  0  0  0  0  0  0
  -23.9460   -4.3930   26.8730   C 0  0  0  0  0  0  0  0  0  0  0  0
  -25.1450  -10.2140   28.9500   F 0  0  0  0  0  0  0  0  0  0  0  0
  -24.6120  -10.7000   31.1520   C 0  0  0  0  0  0  0  0  0  0  0  0
  -24.0910  -11.2300   33.3940   O 0  0  0  0  0  0  0  0  0  0  0  0
  -24.0310  -11.0530   34.8010   C 0  0  0  0  0  0  0  0  0  0  0  0
  -25.4070  -10.9840   35.4290   C 0  0  0  0  0  0  0  0  0  0  0  0
  -25.6390  -10.1680   36.6650   C 0  0  0  0  0  0  0  0  0  0  0  0
  -24.8310   -7.4100   28.4360   N 0  0  0  0  0  0  0  0  0  0  0  0
  -23.5490   -7.4900   25.0150   N 0  0  0  0  0  0  0  0  0  0  0  0
  -22.9170   -5.4460   24.9610   O 0  0  0  0  0  0  0  0  0  0  0  0
  -25.9560   -7.9970   26.6830   O 0  0  0  0  0  0  0  0  0  0  0  0
  -26.3580   -6.2160   29.8950   C 0  0  0  0  0  0  0  0  0  0  0  0
  -28.0750   -5.9750   29.7770   S 0  0  0  0  0  0  0  0  0  0  0  0
  -28.6580   -7.0540   30.5320   O 0  0  0  0  0  0  0  0  0  0  0  0
  -28.3570   -5.9640   28.3620   O 0  0  0  0  0  0  0  0  0  0  0  0
  -28.5470   -4.3920   30.4660   C 0  0  0  0  0  0  0  0  0  0  0  0
  -27.5460   -3.8600   31.5060   C 0  0  0  0  0  0  0  0  0  0  0  0
  -27.9070   -2.4120   31.8310   C 0  0  0  0  0  0  0  0  0  0  0  0
  -25.5880   -5.1890   30.3150   C 0  0  0  0  0  0  0  0  0  0  0  0
  -24.1990   -5.2020   30.2910   N 0  0  0  0  0  0  0  0  0  0  0  0
  1  2  2  0  0  0  0
  1  6  1  0  0  0  0
  2  3  1  0  0  0  0
  3  4  2  0  0  0  0
  4  5  1  0  0  0  0
  4 29  1  0  0  0  0
  5  6  2  0  0  0  0
  5 41  1  0  0  0  0
  6 16  1  0  0  0  0
  7 10  1  0  0  0  0
  7 29  1  0  0  0  0
  7 33  1  0  0  0  0
  8 38  1  0  0  0  0
  8 40  1  0  0  0  0
  9 10  2  0  0  0  0
  9 11  1  0  0  0  0
 10 13  1  0  0  0  0
 11 12  2  0  0  0  0
 12 24  1  0  0  0  0
 12 25  1  0  0  0  0
 13 23  1  0  0  0  0
 13 24  2  0  0  0  0
 14 38  1  0  0  0  0
 15 27  2  0  0  0  0
 17 18  1  0  0  0  0
 17 29  1  0  0  0  0
 17 32  2  0  0  0  0
 18 19  2  0  0  0  0
 18 30  1  0  0  0  0
 19 22  1  0  0  0  0
 19 31  1  0  0  0  0
 20 21  1  0  0  0  0
 20 30  2  0  0  0  0
 20 31  1  0  0  0  0
 25 26  1  0  0  0  0
 26 27  1  0  0  0  0
 27 28  1  0  0  0  0
 33 34  1  0  0  0  0
 33 40  2  0  0  0  0
 34 35  2  0  0  0  0
 34 36  2  0  0  0  0
 34 37  1  0  0  0  0
 37 38  1  0  0  0  0
 38 39  1  0  0  0  0
 40 41  1  0  0  0  0
M  END
>  <InstanceId>
3HKY_IX6_A_579

>  <ChemCompId>
IX6

>  <PdbId>
3HKY

>  <ChainId>
A

>  <ResidueNumber>
579

>  <InsertionCode>


>  <Model>
1

>  <AltIds>


>  <MissingHeavyAtoms>
0

>  <ObservedFormula>
C30 N3 O6 S F

>  <Name>
(11S)-10-[(2,5-dimethyl-1,3-oxazol-4-yl)carbonyl]-11-{2-fluoro-4-[(2-methylprop-2-en-1-yl)oxy]phenyl}-3,3-dimethyl-2,3,4,5,10,11-hexahydrothiopyrano[3,2-b][1,5]benzodiazepin-6-ol 1,1-dioxide

>  <SystematicName>
(2,5-dimethyl-1,3-oxazol-4-yl)-[(5S)-5-[2-fluoro-4-(2-methylprop-2-enoxy)phenyl]-10-hydroxy-2,2-dimethyl-4,4-dioxo-1,3,5,11-tetrahydrothiopyrano[2,3-c][1,5]benzodiazepin-6-yl]methanone

>  <Synonyms>


>  <Type>
NON-POLYMER

>  <Formula>
C30 H32 F N3 O6 S

>  <MolecularWeight>
581.655

>  <ModifiedDate>
2011-06-04

>  <Parent>


>  <OneLetterCode>


>  <SubcomponentList>


>  <AmbiguousFlag>
N

>  <InChI>
InChI=1S/C30H32FN3O6S/c1-16(2)14-39-19-10-11-20(21(31)12-19)27-28-22(13-30(5,6)15-41(28,37)38)33-26-23(8-7-9-24(26)35)34(27)29(36)25-17(3)40-18(4)32-25/h7-12,27,33,35H,1,13-15H2,2-6H3/t27-/m0/s1

>  <InChIKey>
NNKOFEVRZHVHLU-MHZLTWQESA-N

>  <SMILES>
Cc1c(nc(o1)C)C(=O)N2c3cccc(c3NC4=C([C@@H]2c5ccc(cc5F)OCC(=C)C)S(=O)(=O)CC(C4)(C)C)O

$$$$
