3EL9_DR7_A_100
  RCSB PDB08012018563D
Coordinates from PDB:3EL9:A:100 Model:1 without hydrogens
 51 53  0  0  0  0            999 V2000
   20.8160   23.6110    9.1960   C 0  0  0  0  0  0  0  0  0  0  0  0
   21.1110   24.9970    9.3690   O 0  0  0  0  0  0  0  0  0  0  0  0
   21.6170   25.4580   10.6440   C 0  0  0  0  0  0  0  0  0  0  0  0
   21.8960   24.6520   11.5210   O 0  0  0  0  0  0  0  0  0  0  0  0
   21.7790   26.7720   10.7300   N 0  0  0  0  0  0  0  0  0  0  0  0
   22.3140   27.4440   11.8900   C 0  0  0  0  0  0  0  0  0  0  0  0
   23.7120   28.0040   11.6390   C 0  0  0  0  0  0  0  0  0  0  0  0
   24.0290   28.8620   12.8560   C 0  0  0  0  0  0  0  0  0  0  0  0
   23.7740   28.8120   10.3470   C 0  0  0  0  0  0  0  0  0  0  0  0
   24.7300   26.8710   11.5280   C 0  0  0  0  0  0  0  0  0  0  0  0
   21.2680   28.4470   12.3050   C 0  0  0  0  0  0  0  0  0  0  0  0
   21.0450   29.4470   11.6240   O 0  0  0  0  0  0  0  0  0  0  0  0
   20.6180   28.1410   13.4340   N 0  0  0  0  0  0  0  0  0  0  0  0
   19.5570   28.9830   13.9820   C 0  0  0  0  0  0  0  0  0  0  0  0
   18.2450   28.2090   13.8810   C 0  0  0  0  0  0  0  0  0  0  0  0
   17.9440   27.8080   12.4590   C 0  0  0  0  0  0  0  0  0  0  0  0
   18.3340   26.5510   12.0210   C 0  0  0  0  0  0  0  0  0  0  0  0
   18.0830   26.1430   10.7170   C 0  0  0  0  0  0  0  0  0  0  0  0
   17.4150   26.9910    9.8440   C 0  0  0  0  0  0  0  0  0  0  0  0
   17.0080   28.2520   10.2870   C 0  0  0  0  0  0  0  0  0  0  0  0
   17.2600   28.6580   11.5950   C 0  0  0  0  0  0  0  0  0  0  0  0
   19.9160   29.2840   15.4420   C 0  0  0  0  0  0  0  0  0  0  0  0
   20.1870   28.0870   16.1590   O 0  0  0  0  0  0  0  0  0  0  0  0
   21.1780   30.1260   15.5950   C 0  0  0  0  0  0  0  0  0  0  0  0
   20.9560   31.5530   15.4130   N 0  0  0  0  0  0  0  0  0  0  0  0
   19.9080   32.0380   16.0940   N 0  0  0  0  0  0  0  0  0  0  0  0
   18.9780   32.7680   15.4590   C 0  0  0  0  0  0  0  0  0  0  0  0
   18.9460   32.9540   14.2450   O 0  0  0  0  0  0  0  0  0  0  0  0
   17.9960   33.4650   16.3590   C 0  0  0  0  0  0  0  0  0  0  0  0
   16.5220   33.4080   15.9460   C 0  0  0  0  0  0  0  0  0  0  0  0
   15.6390   33.9470   17.0700   C 0  0  0  0  0  0  0  0  0  0  0  0
   16.1370   31.9480   15.7300   C 0  0  0  0  0  0  0  0  0  0  0  0
   16.2160   34.2250   14.6940   C 0  0  0  0  0  0  0  0  0  0  0  0
   18.4470   34.8330   16.4810   N 0  0  0  0  0  0  0  0  0  0  0  0
   18.6090   35.4360   17.6600   C 0  0  0  0  0  0  0  0  0  0  0  0
   18.4250   34.8810   18.7340   O 0  0  0  0  0  0  0  0  0  0  0  0
   19.0120   36.8310   17.6230   O 0  0  0  0  0  0  0  0  0  0  0  0
   19.3080   37.5110   18.8460   C 0  0  0  0  0  0  0  0  0  0  0  0
   22.2240   32.2190   15.7610   C 0  0  0  0  0  0  0  0  0  0  0  0
   22.1300   33.7320   15.7860   C 0  0  0  0  0  0  0  0  0  0  0  0
   22.0460   34.4240   14.6320   C 0  0  0  0  0  0  0  0  0  0  0  0
   21.9600   35.7530   14.7040   C 0  0  0  0  0  0  0  0  0  0  0  0
   22.1420   34.3910   16.8680   C 0  0  0  0  0  0  0  0  0  0  0  0
   22.0660   35.5880   16.9260   C 0  0  0  0  0  0  0  0  0  0  0  0
   21.9730   36.3490   15.9120   C 0  0  0  0  0  0  0  0  0  0  0  0
   21.8670   37.8580   16.0400   C 0  0  0  0  0  0  0  0  0  0  0  0
   21.0160   38.5910   15.2120   C 0  0  0  0  0  0  0  0  0  0  0  0
   20.9130   39.9770   15.3190   C 0  0  0  0  0  0  0  0  0  0  0  0
   21.6630   40.6410   16.2870   C 0  0  0  0  0  0  0  0  0  0  0  0
   22.4930   39.8830   17.1120   C 0  0  0  0  0  0  0  0  0  0  0  0
   22.5680   38.5470   16.9720   N 0  0  0  0  0  0  0  0  0  0  0  0
  1  2  1  0  0  0  0
  2  3  1  0  0  0  0
  3  4  2  0  0  0  0
  3  5  1  0  0  0  0
  5  6  1  0  0  0  0
  6  7  1  0  0  0  0
  6 11  1  0  0  0  0
  7  8  1  0  0  0  0
  7  9  1  0  0  0  0
  7 10  1  0  0  0  0
 11 12  2  0  0  0  0
 11 13  1  0  0  0  0
 13 14  1  0  0  0  0
 14 15  1  0  0  0  0
 14 22  1  0  0  0  0
 15 16  1  0  0  0  0
 16 17  2  0  0  0  0
 16 21  1  0  0  0  0
 17 18  1  0  0  0  0
 18 19  2  0  0  0  0
 19 20  1  0  0  0  0
 20 21  2  0  0  0  0
 22 23  1  0  0  0  0
 22 24  1  0  0  0  0
 24 25  1  0  0  0  0
 25 26  1  0  0  0  0
 25 39  1  0  0  0  0
 26 27  1  0  0  0  0
 27 28  2  0  0  0  0
 27 29  1  0  0  0  0
 29 30  1  0  0  0  0
 29 34  1  0  0  0  0
 30 31  1  0  0  0  0
 30 32  1  0  0  0  0
 30 33  1  0  0  0  0
 34 35  1  0  0  0  0
 35 36  2  0  0  0  0
 35 37  1  0  0  0  0
 37 38  1  0  0  0  0
 39 40  1  0  0  0  0
 40 41  1  0  0  0  0
 40 43  2  0  0  0  0
 41 42  2  0  0  0  0
 42 45  1  0  0  0  0
 43 44  1  0  0  0  0
 44 45  2  0  0  0  0
 45 46  1  0  0  0  0
 46 47  1  0  0  0  0
 46 51  2  0  0  0  0
 47 48  2  0  0  0  0
 48 49  1  0  0  0  0
 49 50  2  0  0  0  0
 50 51  1  0  0  0  0
M  END
>  <InstanceId>
3EL9_DR7_A_100

>  <ChemCompId>
DR7

>  <PdbId>
3EL9

>  <ChainId>
A

>  <ResidueNumber>
100

>  <InsertionCode>


>  <Model>
1

>  <AltIds>


>  <MissingHeavyAtoms>
0

>  <ObservedFormula>
C38 N6 O7

>  <Name>
(3S,8S,9S,12S)-3,12-BIS(1,1-DIMETHYLETHYL)-8-HYDROXY-4,11-DIOXO-9-(PHENYLMETHYL)-6-[[4-(2-PYRIDINYL)PHENYL]METHYL]-2,5, 6,10,13-PENTAAZATETRADECANEDIOIC ACID DIMETHYL ESTER

>  <SystematicName>
methyl N-[(2S)-1-[[(2S,3S)-3-hydroxy-4-[[[(2S)-2-(methoxycarbonylamino)-3,3-dimethyl-butanoyl]amino]-[(4-pyridin-2-ylphenyl)methyl]amino]-1-phenyl-butan-2-yl]amino]-3,3-dimethyl-1-oxo-butan-2-yl]carbamate

>  <Synonyms>
ATAZANAVIR; METHYL [(1S,4S,5S,10S)-4-BENZYL-1,10-DI-TERT-BUTYL-5-HYDROXY-2,9,12-TRIOXO-7-(4-PYRIDIN-2-YLBENZYL)-13-OXA-3,7,8,11-TETRAAZATET RADEC-1-YL]CARBAMATE

>  <Type>
NON-POLYMER

>  <Formula>
C38 H52 N6 O7

>  <MolecularWeight>
704.855

>  <ModifiedDate>
2020-06-17

>  <Parent>


>  <OneLetterCode>


>  <SubcomponentList>


>  <AmbiguousFlag>
N

>  <InChI>
InChI=1S/C38H52N6O7/c1-37(2,3)31(41-35(48)50-7)33(46)40-29(22-25-14-10-9-11-15-25)30(45)24-44(43-34(47)32(38(4,5)6)42-36(49)51-8)23-26-17-19-27(20-18-26)28-16-12-13-21-39-28/h9-21,29-32,45H,22-24H2,1-8H3,(H,40,46)(H,41,48)(H,42,49)(H,43,47)/t29-,30-,31+,32+/m0/s1

>  <InChIKey>
AXRYRYVKAWYZBR-GASGPIRDSA-N

>  <SMILES>
CC(C)(C)[C@@H](C(=O)N[C@@H](Cc1ccccc1)[C@H](CN(Cc2ccc(cc2)c3ccccn3)NC(=O)[C@H](C(C)(C)C)NC(=O)OC)O)NC(=O)OC

$$$$
