2P7G_2OH_A_1
  RCSB PDB08012017423D
Coordinates from PDB:2P7G:A:1 Model:1 without hydrogens
 17 18  0  0  0  0            999 V2000
   48.5790  -29.6480 -101.2110   O 0  0  0  0  0  0  0  0  0  0  0  0
   48.5640  -29.4780  -99.8580   C 0  0  0  0  0  0  0  0  0  0  0  0
   47.5250  -30.0870  -99.1290   C 0  0  0  0  0  0  0  0  0  0  0  0
   47.4680  -29.9360  -97.7110   C 0  0  0  0  0  0  0  0  0  0  0  0
   49.5590  -28.7140  -99.1980   C 0  0  0  0  0  0  0  0  0  0  0  0
   49.5080  -28.5580  -97.7840   C 0  0  0  0  0  0  0  0  0  0  0  0
   48.4580  -29.1650  -96.9920   C 0  0  0  0  0  0  0  0  0  0  0  0
   48.4200  -28.9690  -95.4200   C 0  0  0  0  0  0  0  0  0  0  0  0
   49.7240  -29.6120  -94.8290   C 0  0  0  0  0  0  0  0  0  0  0  0
   47.2320  -29.7120  -94.7540   C 0  0  0  0  0  0  0  0  0  0  0  0
   48.2150  -27.4370  -95.0660   C 0  0  0  0  0  0  0  0  0  0  0  0
   49.1120  -26.6650  -94.2480   C 0  0  0  0  0  0  0  0  0  0  0  0
   48.8460  -25.2860  -93.9710   C 0  0  0  0  0  0  0  0  0  0  0  0
   47.0510  -26.7480  -95.5860   C 0  0  0  0  0  0  0  0  0  0  0  0
   46.7960  -25.3860  -95.3140   C 0  0  0  0  0  0  0  0  0  0  0  0
   47.6860  -24.6620  -94.5100   C 0  0  0  0  0  0  0  0  0  0  0  0
   47.4540  -23.3420  -94.2300   O 0  0  0  0  0  0  0  0  0  0  0  0
  1  2  1  0  0  0  0
  2  3  1  0  0  0  0
  2  5  2  0  0  0  0
  3  4  2  0  0  0  0
  4  7  1  0  0  0  0
  5  6  1  0  0  0  0
  6  7  2  0  0  0  0
  7  8  1  0  0  0  0
  8 11  1  0  0  0  0
  8  9  1  0  0  0  0
  8 10  1  0  0  0  0
 11 12  2  0  0  0  0
 11 14  1  0  0  0  0
 12 13  1  0  0  0  0
 13 16  2  0  0  0  0
 14 15  2  0  0  0  0
 15 16  1  0  0  0  0
 16 17  1  0  0  0  0
M  END
>  <InstanceId>
2P7G_2OH_A_1

>  <ChemCompId>
2OH

>  <PdbId>
2P7G

>  <ChainId>
A

>  <ResidueNumber>
1

>  <InsertionCode>


>  <Model>
1

>  <AltIds>


>  <MissingHeavyAtoms>
0

>  <ObservedFormula>
C15 O2

>  <Name>
4,4'-PROPANE-2,2-DIYLDIPHENOL

>  <SystematicName>
4-[2-(4-hydroxyphenyl)propan-2-yl]phenol

>  <Synonyms>
4,4'-ISOPROPYLIDENEDIPHENOL; BISPHENOL A

>  <Type>
NON-POLYMER

>  <Formula>
C15 H16 O2

>  <MolecularWeight>
228.286

>  <ModifiedDate>
2020-05-26

>  <Parent>


>  <OneLetterCode>


>  <SubcomponentList>


>  <AmbiguousFlag>


>  <InChI>
InChI=1S/C15H16O2/c1-15(2,11-3-7-13(16)8-4-11)12-5-9-14(17)10-6-12/h3-10,16-17H,1-2H3

>  <InChIKey>
IISBACLAFKSPIT-UHFFFAOYSA-N

>  <SMILES>
CC(C)(c1ccc(cc1)O)c2ccc(cc2)O

$$$$
