5ORW_A6E_A_404
  RCSB PDB08022002443D
Coordinates from PDB:5ORW:A:404 Model:1 without hydrogens
 18 19  0  0  0  0            999 V2000
  -12.0350   15.5280  -20.1940   C 0  0  0  0  0  0  0  0  0  0  0  0
  -11.1170   14.5230  -19.9480   C 0  0  0  0  0  0  0  0  0  0  0  0
  -11.7940   12.9300  -16.7270   C 0  0  0  0  0  0  0  0  0  0  0  0
  -13.1290   12.7980  -16.0350   C 0  0  0  0  0  0  0  0  0  0  0  0
  -11.8400   11.4800  -14.1210   C 0  0  0  0  0  0  0  0  0  0  0  0
  -10.5890   11.6850  -14.9450   C 0  0  0  0  0  0  0  0  0  0  0  0
   -9.3410   12.3730  -19.3280   C 0  0  0  0  0  0  0  0  0  0  0  0
  -10.4850   11.5210  -18.7610   C 0  0  0  0  0  0  0  0  0  0  0  0
  -10.2540   11.1210  -17.3370   C 0  0  0  0  0  0  0  0  0  0  0  0
  -10.2550   14.6250  -18.8780   C 0  0  0  0  0  0  0  0  0  0  0  0
  -10.3000   15.7240  -18.0490   C 0  0  0  0  0  0  0  0  0  0  0  0
  -11.2170   16.7340  -18.2880   C 0  0  0  0  0  0  0  0  0  0  0  0
   -9.4760   10.2050  -17.0450   O 0  0  0  0  0  0  0  0  0  0  0  0
  -10.8740   11.8340  -16.3760   N 0  0  0  0  0  0  0  0  0  0  0  0
  -12.9700   12.8710  -14.2490   S 0  0  0  0  0  0  0  0  0  0  0  0
   -9.3090   13.5910  -18.5690   O 0  0  0  0  0  0  0  0  0  0  0  0
  -12.0560   16.6040  -19.3570   C 0  0  0  0  0  0  0  0  0  0  0  0
  -12.9470   17.5880  -19.5960   F 0  0  0  0  0  0  0  0  0  0  0  0
  1  2  2  0  0  0  0
  1 17  1  0  0  0  0
  2 10  1  0  0  0  0
 18 17  1  0  0  0  0
 17 12  2  0  0  0  0
  7  8  1  0  0  0  0
  7 16  1  0  0  0  0
 10 16  1  0  0  0  0
 10 11  2  0  0  0  0
  8  9  1  0  0  0  0
 12 11  1  0  0  0  0
  9 13  2  0  0  0  0
  9 14  1  0  0  0  0
  3 14  1  0  0  0  0
  3  4  1  0  0  0  0
 14  6  1  0  0  0  0
  4 15  1  0  0  0  0
  6  5  1  0  0  0  0
 15  5  1  0  0  0  0
M  END
>  <InstanceId>
5ORW_A6E_A_404

>  <ChemCompId>
A6E

>  <PdbId>
5ORW

>  <ChainId>
A

>  <ResidueNumber>
404

>  <InsertionCode>


>  <Model>
1

>  <AltIds>


>  <MissingHeavyAtoms>
0

>  <ObservedFormula>
C13 N O2 S F

>  <Name>
3-(4-fluoranylphenoxy)-1-thiomorpholin-4-yl-propan-1-one

>  <SystematicName>
3-(4-fluoranylphenoxy)-1-thiomorpholin-4-yl-propan-1-one

>  <Synonyms>


>  <Type>
NON-POLYMER

>  <Formula>
C13 H16 F N O2 S

>  <MolecularWeight>
269.335

>  <ModifiedDate>
2017-10-27

>  <Parent>


>  <OneLetterCode>


>  <SubcomponentList>


>  <AmbiguousFlag>
N

>  <InChI>
InChI=1S/C13H16FNO2S/c14-11-1-3-12(4-2-11)17-8-5-13(16)15-6-9-18-10-7-15/h1-4H,5-10H2

>  <InChIKey>
WKRDDFLIYSQAFI-UHFFFAOYSA-N

>  <SMILES>
c1cc(ccc1OCCC(=O)N2CCSCC2)F

$$$$
