4JSS_BEW_A_303
  RCSB PDB08012022093D
Coordinates from PDB:4JSS:A:303 Model:1 without hydrogens
  8  8  0  0  0  0            999 V2000
   16.0870    3.0630   12.9780   C 0  0  0  0  0  0  0  0  0  0  0  0
   15.5330    3.7010   14.1080   C 0  0  0  0  0  0  0  0  0  0  0  0
   14.7730    2.9540   15.0220   C 0  0  0  0  0  0  0  0  0  0  0  0
   15.4900    0.9020   13.9340   N 0  3  0  0  0  0  0  0  0  0  0  0
   15.5950   -0.4810   13.9410   O 0  0  0  0  0  0  0  0  0  0  0  0
   16.0990    1.6670   12.9050   C 0  0  0  0  0  0  0  0  0  0  0  0
   14.7620    1.5340   14.9300   C 0  0  0  0  0  0  0  0  0  0  0  0
   13.8040    0.6030   15.9880   S 0  0  0  0  0  0  0  0  0  0  0  0
  1  2  2  0  0  0  0
  1  6  1  0  0  0  0
  2  3  1  0  0  0  0
  3  7  2  0  0  0  0
  4  5  1  0  0  0  0
  4  6  2  0  0  0  0
  4  7  1  0  0  0  0
  7  8  1  0  0  0  0
M  CHG  1   4   1
M  END
>  <InstanceId>
4JSS_BEW_A_303

>  <ChemCompId>
BEW

>  <PdbId>
4JSS

>  <ChainId>
A

>  <ResidueNumber>
303

>  <InsertionCode>


>  <Model>
1

>  <AltIds>


>  <MissingHeavyAtoms>
0

>  <ObservedFormula>
C5 N O S

>  <Name>
1-hydroxy-2-sulfanylpyridinium

>  <SystematicName>
1-hydroxypyridin-1-ium-2-thiol

>  <Synonyms>


>  <Type>
NON-POLYMER

>  <Formula>
C5 H6 N O S

>  <MolecularWeight>
128.172

>  <ModifiedDate>
2011-06-04

>  <Parent>


>  <OneLetterCode>


>  <SubcomponentList>


>  <AmbiguousFlag>
N

>  <InChI>
InChI=1S/C5H5NOS/c7-6-4-2-1-3-5(6)8/h1-4,7H/p+1

>  <InChIKey>
YBBJKCMMCRQZMA-UHFFFAOYSA-O

>  <SMILES>
c1cc[n+](c(c1)S)O

$$$$
