1HSH_MK1_A_401
  RCSB PDB08012015053D
Coordinates from PDB:1HSH:A:401 Model:1 without hydrogens
 45 49  0  0  0  0            999 V2000
   11.8340    4.3590    9.9060   N 0  0  0  0  0  0  0  0  0  0  0  0
   12.7330    3.1970    9.9370   C 0  0  0  0  0  0  0  0  0  0  0  0
   13.3080    2.6910    8.6070   C 0  0  0  0  0  0  0  0  0  0  0  0
   14.1000    1.4240    8.8820   C 0  0  0  0  0  0  0  0  0  0  0  0
   13.5090    0.3830    9.1850   O 0  0  0  0  0  0  0  0  0  0  0  0
   15.4300    1.5170    8.8220   N 0  0  0  0  0  0  0  0  0  0  0  0
   16.4300    0.3730    9.1140   C 0  0  0  0  0  0  0  0  0  0  0  0
   17.9040    0.8640    9.0220   C 0  0  0  0  0  0  0  0  0  0  0  0
   16.4940   -0.6600    7.9530   C 0  0  0  0  0  0  0  0  0  0  0  0
   16.1200   -0.3140   10.5490   C 0  0  0  0  0  0  0  0  0  0  0  0
   12.2600    2.5380    7.5910   N 0  0  0  0  0  0  0  0  0  0  0  0
   11.2470    3.6340    7.5410   C 0  0  0  0  0  0  0  0  0  0  0  0
   10.7520    4.1370    8.9100   C 0  0  0  0  0  0  0  0  0  0  0  0
   12.7070    2.0400    6.3020   C 0  0  0  0  0  0  0  0  0  0  0  0
   11.7170    1.0420    5.6970   C 0  0  0  0  0  0  0  0  0  0  0  0
   11.8160    1.0600    4.2690   O 0  0  0  0  0  0  0  0  0  0  0  0
   11.8960   -0.4230    6.0910   C 0  0  0  0  0  0  0  0  0  0  0  0
   11.0140   -1.4400    5.3650   C 0  0  0  0  0  0  0  0  0  0  0  0
   11.6830   -2.7690    5.7160   C 0  0  0  0  0  0  0  0  0  0  0  0
   10.8330   -3.9550    5.4080   C 0  0  0  0  0  0  0  0  0  0  0  0
   10.4000   -4.2230    4.1150   C 0  0  0  0  0  0  0  0  0  0  0  0
    9.4470   -5.2180    3.8990   C 0  0  0  0  0  0  0  0  0  0  0  0
    8.9360   -5.9430    4.9810   C 0  0  0  0  0  0  0  0  0  0  0  0
    9.3790   -5.6790    6.2700   C 0  0  0  0  0  0  0  0  0  0  0  0
   10.3260   -4.6920    6.4830   C 0  0  0  0  0  0  0  0  0  0  0  0
    9.5570   -1.3850    5.8630   C 0  0  0  0  0  0  0  0  0  0  0  0
    9.2740   -0.9040    6.9590   O 0  0  0  0  0  0  0  0  0  0  0  0
    8.6380   -1.9010    5.0490   N 0  0  0  0  0  0  0  0  0  0  0  0
    7.2200   -2.0180    5.3980   C 0  0  0  0  0  0  0  0  0  0  0  0
    6.4390   -2.8300    4.3370   C 0  0  0  0  0  0  0  0  0  0  0  0
    7.1820   -2.9470    3.1220   O 0  0  0  0  0  0  0  0  0  0  0  0
    5.0390   -2.2750    4.3350   C 0  0  0  0  0  0  0  0  0  0  0  0
    5.0260   -0.8500    4.8220   C 0  0  0  0  0  0  0  0  0  0  0  0
    4.1270    0.2010    4.7200   C 0  0  0  0  0  0  0  0  0  0  0  0
    4.5010    1.4360    5.2500   C 0  0  0  0  0  0  0  0  0  0  0  0
    5.7400    1.6180    5.8890   C 0  0  0  0  0  0  0  0  0  0  0  0
    6.6740    0.5710    6.0220   C 0  0  0  0  0  0  0  0  0  0  0  0
    6.4170   -0.7040    5.5100   C 0  0  0  0  0  0  0  0  0  0  0  0
   11.4660    4.9870   11.2060   C 0  0  0  0  0  0  0  0  0  0  0  0
   12.5180    5.3700   12.3280   C 0  0  0  0  0  0  0  0  0  0  0  0
   13.6040    6.2000   12.0930   C 0  0  0  0  0  0  0  0  0  0  0  0
   14.5190    6.6560   13.1340   N 0  0  0  0  0  0  0  0  0  0  0  0
   14.1940    6.1760   14.4180   C 0  0  0  0  0  0  0  0  0  0  0  0
   13.1230    5.3490   14.6790   C 0  0  0  0  0  0  0  0  0  0  0  0
   12.2840    4.9420   13.6370   C 0  0  0  0  0  0  0  0  0  0  0  0
  1  2  1  0  0  0  0
  1 13  1  0  0  0  0
  1 39  1  0  0  0  0
  2  3  1  0  0  0  0
  3  4  1  0  0  0  0
  3 11  1  0  0  0  0
  4  5  2  0  0  0  0
  4  6  1  0  0  0  0
  6  7  1  0  0  0  0
  7  8  1  0  0  0  0
  7  9  1  0  0  0  0
  7 10  1  0  0  0  0
 11 12  1  0  0  0  0
 11 14  1  0  0  0  0
 12 13  1  0  0  0  0
 14 15  1  0  0  0  0
 15 16  1  0  0  0  0
 15 17  1  0  0  0  0
 17 18  1  0  0  0  0
 18 19  1  0  0  0  0
 18 26  1  0  0  0  0
 19 20  1  0  0  0  0
 20 21  2  0  0  0  0
 20 25  1  0  0  0  0
 21 22  1  0  0  0  0
 22 23  2  0  0  0  0
 23 24  1  0  0  0  0
 24 25  2  0  0  0  0
 26 27  2  0  0  0  0
 26 28  1  0  0  0  0
 28 29  1  0  0  0  0
 29 30  1  0  0  0  0
 29 38  1  0  0  0  0
 30 31  1  0  0  0  0
 30 32  1  0  0  0  0
 32 33  1  0  0  0  0
 33 34  2  0  0  0  0
 33 38  1  0  0  0  0
 34 35  1  0  0  0  0
 35 36  2  0  0  0  0
 36 37  1  0  0  0  0
 37 38  2  0  0  0  0
 39 40  1  0  0  0  0
 40 41  1  0  0  0  0
 40 45  2  0  0  0  0
 41 42  2  0  0  0  0
 42 43  1  0  0  0  0
 43 44  2  0  0  0  0
 44 45  1  0  0  0  0
M  END
>  <InstanceId>
1HSH_MK1_A_401

>  <ChemCompId>
MK1

>  <PdbId>
1HSH

>  <ChainId>
A

>  <ResidueNumber>
401

>  <InsertionCode>


>  <Model>
1

>  <AltIds>


>  <MissingHeavyAtoms>
0

>  <ObservedFormula>
C36 N5 O4

>  <Name>
N-[2(R)-HYDROXY-1(S)-INDANYL]-5-[(2(S)-TERTIARY BUTYLAMINOCARBONYL)-4(3-PYRIDYLMETHYL)PIPERAZINO]-4(S)-HYDROXY-2(R)-PHENYLMETHYLPENTANAMIDE

>  <SystematicName>
(1S,2S,4R)-N-tert-butyl-1-[(2S,4R)-2-hydroxy-5-[[(1S,2R)-2-hydroxy-2,3-dihydro-1H-inden-1-yl]amino]-5-oxo-4-(phenylmethyl)pentyl]-4-(pyridin-3-ylmethyl)piperazine-2-carboxamide

>  <Synonyms>
INDINAVIR

>  <Type>
NON-POLYMER

>  <Formula>
C36 H47 N5 O4

>  <MolecularWeight>
613.789

>  <ModifiedDate>
2020-06-17

>  <Parent>


>  <OneLetterCode>


>  <SubcomponentList>


>  <AmbiguousFlag>
N

>  <InChI>
InChI=1S/C36H47N5O4/c1-36(2,3)39-35(45)31-24-40(22-26-12-9-15-37-21-26)16-17-41(31)23-29(42)19-28(18-25-10-5-4-6-11-25)34(44)38-33-30-14-8-7-13-27(30)20-32(33)43/h4-15,21,28-29,31-33,42-43H,16-20,22-24H2,1-3H3,(H,38,44)(H,39,45)/t28-,29+,31+,32-,33+/m1/s1

>  <InChIKey>
CBVCZFGXHXORBI-PXQQMZJSSA-N

>  <SMILES>
CC(C)(C)NC(=O)[C@@H]1C[N@@](CC[N@]1C[C@H](C[C@@H](Cc2ccccc2)C(=O)N[C@H]3c4ccccc4C[C@H]3O)O)Cc5cccnc5

$$$$
