1ZPA_A83_A_200
  RCSB PDB08012016323D
Coordinates from PDB:1ZPA:A:200 Model:1 without hydrogens
 51 54  0  0  0  0            999 V2000
  -11.3110   15.0080   33.1070   C 0  0  0  0  0  0  0  0  0  0  0  0
  -11.9100   16.0560   32.9280   O 0  0  0  0  0  0  0  0  0  0  0  0
   -9.9930   14.9170   32.9080   N 0  0  0  0  0  0  0  0  0  0  0  0
   -9.1460   15.9350   32.2870   C 0  0  0  0  0  0  0  0  0  0  0  0
   -9.1490   15.7330   30.7820   C 0  0  0  0  0  0  0  0  0  0  0  0
  -10.0110   16.3390   29.9000   C 0  0  0  0  0  0  0  0  0  0  0  0
   -9.6790   15.9110   28.6510   N 0  0  0  0  0  0  0  0  0  0  0  0
   -8.6370   15.0360   28.8100   N 0  0  0  0  0  0  0  0  0  0  0  0
   -8.3210   14.9250   30.0560   N 0  0  0  0  0  0  0  0  0  0  0  0
  -10.2530   16.1940   27.3260   C 0  0  0  0  0  0  0  0  0  0  0  0
  -10.0740   17.7050   26.9270   C 0  0  0  0  0  0  0  0  0  0  0  0
   -9.6400   17.9140   25.4410   C 0  0  0  0  0  0  0  0  0  0  0  0
   -8.4720   17.1300   25.1160   N 0  0  0  0  0  0  0  0  0  0  0  0
   -7.1610   17.6470   25.4380   C 0  0  0  0  0  0  0  0  0  0  0  0
   -6.2770   16.7300   26.3240   C 0  0  0  0  0  0  0  0  0  0  0  0
   -4.8430   16.5550   25.7790   C 0  0  0  0  0  0  0  0  0  0  0  0
   -6.3080   17.1020   27.8300   C 0  0  0  0  0  0  0  0  0  0  0  0
   -8.6280   15.7260   24.1070   S 0  0  0  0  0  0  0  0  0  0  0  0
   -9.9520   15.1690   24.2520   O 0  0  0  0  0  0  0  0  0  0  0  0
   -7.6860   14.7010   24.4530   O 0  0  0  0  0  0  0  0  0  0  0  0
   -8.4070   16.1390   22.4360   C 0  0  0  0  0  0  0  0  0  0  0  0
   -7.1640   15.9780   21.8390   C 0  0  0  0  0  0  0  0  0  0  0  0
   -6.9810   16.3120   20.4880   C 0  0  0  0  0  0  0  0  0  0  0  0
   -8.0520   16.8220   19.7800   C 0  0  0  0  0  0  0  0  0  0  0  0
   -9.3060   16.9630   20.3690   C 0  0  0  0  0  0  0  0  0  0  0  0
   -9.4810   16.6190   21.6980   C 0  0  0  0  0  0  0  0  0  0  0  0
   -7.9040   17.1310   18.4830   O 0  0  0  0  0  0  0  0  0  0  0  0
   -6.7140   16.9930   17.7380   C 0  0  0  0  0  0  0  0  0  0  0  0
  -11.7160   15.6530   27.3280   C 0  0  0  0  0  0  0  0  0  0  0  0
  -11.2450   18.4740   27.1270   O 0  0  0  0  0  0  0  0  0  0  0  0
  -11.9790   14.2230   27.7210   C 0  0  0  0  0  0  0  0  0  0  0  0
  -11.4590   13.1770   26.9470   C 0  0  0  0  0  0  0  0  0  0  0  0
  -11.6970   11.8540   27.2910   C 0  0  0  0  0  0  0  0  0  0  0  0
  -12.4440   11.5570   28.4270   C 0  0  0  0  0  0  0  0  0  0  0  0
  -12.9610   12.5870   29.2060   C 0  0  0  0  0  0  0  0  0  0  0  0
  -12.7470   13.9110   28.8420   C 0  0  0  0  0  0  0  0  0  0  0  0
  -12.0760   13.8560   33.5520   C 0  0  0  0  0  0  0  0  0  0  0  0
  -13.4580   13.9670   33.7050   C 0  0  0  0  0  0  0  0  0  0  0  0
  -14.1920   12.8660   34.1330   C 0  0  0  0  0  0  0  0  0  0  0  0
  -13.5560   11.6650   34.4070   C 0  0  0  0  0  0  0  0  0  0  0  0
  -12.1750   11.5580   34.2540   C 0  0  0  0  0  0  0  0  0  0  0  0
  -11.4410   12.6550   33.8100   C 0  0  0  0  0  0  0  0  0  0  0  0
  -14.3300   10.4530   34.8700   C 0  0  0  0  0  0  0  0  0  0  0  0
  -15.6130   10.8580   35.4650   N 0  0  0  0  0  0  0  0  0  0  0  0
  -16.7270   10.1300   35.2070   C 0  0  0  0  0  0  0  0  0  0  0  0
  -17.3980    9.7170   36.1320   O 0  0  0  0  0  0  0  0  0  0  0  0
  -17.0870    9.8650   33.9500   O 0  0  0  0  0  0  0  0  0  0  0  0
  -16.5160   10.2600   32.7060   C 0  0  0  0  0  0  0  0  0  0  0  0
  -17.7600   10.4630   31.7580   C 0  0  0  0  0  0  0  0  0  0  0  0
  -15.7490   11.5930   32.8650   C 0  0  0  0  0  0  0  0  0  0  0  0
  -15.6110    9.1300   32.1570   C 0  0  0  0  0  0  0  0  0  0  0  0
  1  2  2  0  0  0  0
  1  3  1  0  0  0  0
  1 37  1  0  0  0  0
  3  4  1  0  0  0  0
  4  5  1  0  0  0  0
  5  6  2  0  0  0  0
  5  9  1  0  0  0  0
  6  7  1  0  0  0  0
  7  8  1  0  0  0  0
  7 10  1  0  0  0  0
  8  9  2  0  0  0  0
 10 11  1  0  0  0  0
 10 29  1  0  0  0  0
 11 12  1  0  0  0  0
 11 30  1  0  0  0  0
 12 13  1  0  0  0  0
 13 14  1  0  0  0  0
 13 18  1  0  0  0  0
 14 15  1  0  0  0  0
 15 16  1  0  0  0  0
 15 17  1  0  0  0  0
 18 19  2  0  0  0  0
 18 20  2  0  0  0  0
 18 21  1  0  0  0  0
 21 22  2  0  0  0  0
 21 26  1  0  0  0  0
 22 23  1  0  0  0  0
 23 24  2  0  0  0  0
 24 25  1  0  0  0  0
 24 27  1  0  0  0  0
 25 26  2  0  0  0  0
 27 28  1  0  0  0  0
 29 31  1  0  0  0  0
 31 32  2  0  0  0  0
 31 36  1  0  0  0  0
 32 33  1  0  0  0  0
 33 34  2  0  0  0  0
 34 35  1  0  0  0  0
 35 36  2  0  0  0  0
 37 38  2  0  0  0  0
 37 42  1  0  0  0  0
 38 39  1  0  0  0  0
 39 40  2  0  0  0  0
 40 41  1  0  0  0  0
 40 43  1  0  0  0  0
 41 42  2  0  0  0  0
 43 44  1  0  0  0  0
 44 45  1  0  0  0  0
 45 46  2  0  0  0  0
 45 47  1  0  0  0  0
 47 48  1  0  0  0  0
 48 49  1  0  0  0  0
 48 50  1  0  0  0  0
 48 51  1  0  0  0  0
M  END
>  <InstanceId>
1ZPA_A83_A_200

>  <ChemCompId>
A83

>  <PdbId>
1ZPA

>  <ChainId>
A

>  <ResidueNumber>
200

>  <InsertionCode>


>  <Model>
1

>  <AltIds>


>  <MissingHeavyAtoms>
0

>  <ObservedFormula>
C37 N6 O7 S

>  <Name>
TERT-BUTYL 4-[({[1-((1S,2R)-1-BENZYL-2-HYDROXY-3-{ISOBUTYL[(4-METHOXYPHENYL)SULFONYL]AMINO}PROPYL)-1H-1,2,3-TRIAZOL-4-YL]METHYL}AMINO)CARBONYL]BENZYLCARBAMATE

>  <SystematicName>
tert-butyl N-[[4-[[1-[(2S,3R)-3-hydroxy-4-[(4-methoxyphenyl)sulfonyl-(2-methylpropyl)amino]-1-phenyl-butan-2-yl]-1,2,3-triazol-4-yl]methylcarbamoyl]phenyl]methyl]carbamate

>  <Synonyms>


>  <Type>
NON-POLYMER

>  <Formula>
C37 H48 N6 O7 S

>  <MolecularWeight>
720.878

>  <ModifiedDate>
2011-06-04

>  <Parent>


>  <OneLetterCode>


>  <SubcomponentList>


>  <AmbiguousFlag>
N

>  <InChI>
InChI=1S/C37H48N6O7S/c1-26(2)23-42(51(47,48)32-18-16-31(49-6)17-19-32)25-34(44)33(20-27-10-8-7-9-11-27)43-24-30(40-41-43)22-38-35(45)29-14-12-28(13-15-29)21-39-36(46)50-37(3,4)5/h7-19,24,26,33-34,44H,20-23,25H2,1-6H3,(H,38,45)(H,39,46)/t33-,34+/m0/s1

>  <InChIKey>
XWYIBXKLXLXYMK-SZAHLOSFSA-N

>  <SMILES>
CC(C)CN(C[C@H]([C@H](Cc1ccccc1)n2cc(nn2)CNC(=O)c3ccc(cc3)CNC(=O)OC(C)(C)C)O)S(=O)(=O)c4ccc(cc4)OC

$$$$
