5IA3_P17_A_1001
  RCSB PDB08022001423D
Coordinates from PDB:5IA3:A:1001 Model:1 without hydrogens
 29 32  0  0  0  0            999 V2000
 -107.7030  -14.0970   80.0330   S 0  0  0  0  0  0  0  0  0  0  0  0
 -108.7700  -14.3130   81.3650   C 0  0  0  0  0  0  0  0  0  0  0  0
 -110.1410  -14.3170   81.1410   C 0  0  0  0  0  0  0  0  0  0  0  0
 -111.0410  -14.5010   82.1810   C 0  0  0  0  0  0  0  0  0  0  0  0
 -112.3550  -14.4750   81.8560   N 0  0  0  0  0  0  0  0  0  0  0  0
 -113.3480  -15.0050   82.5970   C 0  0  0  0  0  0  0  0  0  0  0  0
 -113.1930  -15.5140   83.8360   N 0  0  0  0  0  0  0  0  0  0  0  0
 -114.2200  -16.0350   84.5320   C 0  0  0  0  0  0  0  0  0  0  0  0
 -114.0130  -16.5380   85.7610   N 0  0  0  0  0  0  0  0  0  0  0  0
 -112.6410  -16.5060   86.3270   C 0  0  0  0  0  0  0  0  0  0  0  0
 -115.0160  -17.0660   86.4880   C 0  0  0  0  0  0  0  0  0  0  0  0
 -114.7570  -17.5080   87.6090   O 0  0  0  0  0  0  0  0  0  0  0  0
 -116.3160  -17.1170   85.9860   C 0  0  0  0  0  0  0  0  0  0  0  0
 -117.3510  -17.6750   86.7500   C 0  0  0  0  0  0  0  0  0  0  0  0
 -117.8280  -18.9590   86.4700   C 0  0  0  0  0  0  0  0  0  0  0  0
 -117.3690  -15.3970   88.1860  Cl 0  0  0  0  0  0  0  0  0  0  0  0
 -118.8490  -19.5260   87.2250   C 0  0  0  0  0  0  0  0  0  0  0  0
 -119.4130  -18.8170   88.2790   C 0  0  0  0  0  0  0  0  0  0  0  0
 -118.9450  -17.5400   88.5670   C 0  0  0  0  0  0  0  0  0  0  0  0
 -117.9230  -16.9720   87.8090   C 0  0  0  0  0  0  0  0  0  0  0  0
 -117.1660  -19.8740   85.1870  Cl 0  0  0  0  0  0  0  0  0  0  0  0
 -116.5550  -16.6000   84.7130   C 0  0  0  0  0  0  0  0  0  0  0  0
 -115.4930  -16.0570   83.9860   C 0  0  0  0  0  0  0  0  0  0  0  0
 -115.6780  -15.5320   82.7140   C 0  0  0  0  0  0  0  0  0  0  0  0
 -114.5710  -15.0110   82.0360   N 0  0  0  0  0  0  0  0  0  0  0  0
 -110.5240  -14.6600   83.4700   C 0  0  0  0  0  0  0  0  0  0  0  0
 -109.1540  -14.6540   83.7030   C 0  0  0  0  0  0  0  0  0  0  0  0
 -108.2670  -14.4810   82.6500   C 0  0  0  0  0  0  0  0  0  0  0  0
 -107.2740  -15.7860   79.6750   C 0  0  0  0  0  0  0  0  0  0  0  0
  1  2  1  0  0  0  0
  1 29  1  0  0  0  0
  2  3  2  0  0  0  0
  2 28  1  0  0  0  0
  3  4  1  0  0  0  0
  4  5  1  0  0  0  0
  4 26  2  0  0  0  0
  5  6  1  0  0  0  0
  6  7  2  0  0  0  0
  6 25  1  0  0  0  0
  7  8  1  0  0  0  0
  8  9  1  0  0  0  0
  8 23  2  0  0  0  0
  9 10  1  0  0  0  0
  9 11  1  0  0  0  0
 11 12  2  0  0  0  0
 11 13  1  0  0  0  0
 13 14  1  0  0  0  0
 13 22  2  0  0  0  0
 14 15  1  0  0  0  0
 14 20  2  0  0  0  0
 15 17  2  0  0  0  0
 15 21  1  0  0  0  0
 16 20  1  0  0  0  0
 17 18  1  0  0  0  0
 18 19  2  0  0  0  0
 19 20  1  0  0  0  0
 22 23  1  0  0  0  0
 23 24  1  0  0  0  0
 24 25  2  0  0  0  0
 26 27  1  0  0  0  0
 27 28  2  0  0  0  0
M  END
>  <InstanceId>
5IA3_P17_A_1001

>  <ChemCompId>
P17

>  <PdbId>
5IA3

>  <ChainId>
A

>  <ResidueNumber>
1001

>  <InsertionCode>


>  <Model>
1

>  <AltIds>


>  <MissingHeavyAtoms>
0

>  <ObservedFormula>
C21 N4 O S Cl2

>  <Name>
6-(2,6-DICHLORO-PHENYL)-8-METHYL-2-(3-METHYLSULFANYL-PHENYLAMINO)-8H-PYRIDO[2,3-D]PYRIMIDIN-7-ONE

>  <SystematicName>
6-(2,6-dichlorophenyl)-8-methyl-2-[(3-methylsulfanylphenyl)amino]pyrido[6,5-d]pyrimidin-7-one

>  <Synonyms>
PD173955

>  <Type>
NON-POLYMER

>  <Formula>
C21 H16 Cl2 N4 O S

>  <MolecularWeight>
443.349

>  <ModifiedDate>
2011-06-04

>  <Parent>


>  <OneLetterCode>


>  <SubcomponentList>


>  <AmbiguousFlag>
N

>  <InChI>
InChI=1S/C21H16Cl2N4OS/c1-27-19-12(9-15(20(27)28)18-16(22)7-4-8-17(18)23)11-24-21(26-19)25-13-5-3-6-14(10-13)29-2/h3-11H,1-2H3,(H,24,25,26)

>  <InChIKey>
VAARYSWULJUGST-UHFFFAOYSA-N

>  <SMILES>
CN1c2c(cnc(n2)Nc3cccc(c3)SC)C=C(C1=O)c4c(cccc4Cl)Cl

$$$$
