2V54_TYD_A_1205
  RCSB PDB08012017593D
Coordinates from PDB:2V54:A:1205 Model:1 without hydrogens
 25 26  0  0  0  0            999 V2000
   11.3860   20.2800    2.1180   P 0  0  0  0  0  0  0  0  0  0  0  0
   12.3330   19.7820    1.0960   O 0  0  0  0  0  0  0  0  0  0  0  0
   10.4090   19.3290    2.6920   O 0  0  0  0  0  0  0  0  0  0  0  0
   12.2660   20.9180    3.3050   O 0  0  0  0  0  0  0  0  0  0  0  0
   11.6600   21.1970    4.7690   P 0  0  0  0  0  0  0  0  0  0  0  0
   12.3100   20.3710    5.8120   O 0  0  0  0  0  0  0  0  0  0  0  0
   11.8430   22.7770    5.0190   O 0  0  0  0  0  0  0  0  0  0  0  0
   10.0720   20.9550    4.6820   O 0  0  0  0  0  0  0  0  0  0  0  0
   10.6080   21.5710    1.5520   O 0  0  0  0  0  0  0  0  0  0  0  0
   11.3400   22.7740    1.3050   C 0  0  0  0  0  0  0  0  0  0  0  0
   10.4120   23.9680    1.0730   C 0  0  0  0  0  0  0  0  0  0  0  0
    9.6410   23.7320   -0.1190   O 0  0  0  0  0  0  0  0  0  0  0  0
    9.4100   24.1100    2.2240   C 0  0  0  0  0  0  0  0  0  0  0  0
    9.1850   25.4960    2.4980   O 0  0  0  0  0  0  0  0  0  0  0  0
    8.1580   23.4730    1.6240   C 0  0  0  0  0  0  0  0  0  0  0  0
    8.2710   24.0230    0.2020   C 0  0  0  0  0  0  0  0  0  0  0  0
    7.3970   23.3190   -0.7650   N 0  0  0  0  0  0  0  0  0  0  0  0
    6.4700   24.0160   -1.5490   C 0  0  0  0  0  0  0  0  0  0  0  0
    6.3500   25.2340   -1.4380   O 0  0  0  0  0  0  0  0  0  0  0  0
    5.7050   23.3260   -2.5000   N 0  0  0  0  0  0  0  0  0  0  0  0
    5.8750   21.9500   -2.6710   C 0  0  0  0  0  0  0  0  0  0  0  0
    5.2340   21.3530   -3.5390   O 0  0  0  0  0  0  0  0  0  0  0  0
    6.7960   21.2580   -1.8900   C 0  0  0  0  0  0  0  0  0  0  0  0
    6.9790   19.7480   -2.0650   C 0  0  0  0  0  0  0  0  0  0  0  0
    7.5500   21.9360   -0.9440   C 0  0  0  0  0  0  0  0  0  0  0  0
  1  2  2  0  0  0  0
  1  3  1  0  0  0  0
  1  4  1  0  0  0  0
  1  9  1  0  0  0  0
  4  5  1  0  0  0  0
  5  6  2  0  0  0  0
  5  7  1  0  0  0  0
  5  8  1  0  0  0  0
  9 10  1  0  0  0  0
 10 11  1  0  0  0  0
 11 12  1  0  0  0  0
 11 13  1  0  0  0  0
 12 16  1  0  0  0  0
 13 14  1  0  0  0  0
 13 15  1  0  0  0  0
 15 16  1  0  0  0  0
 16 17  1  0  0  0  0
 17 18  1  0  0  0  0
 17 25  1  0  0  0  0
 18 19  2  0  0  0  0
 18 20  1  0  0  0  0
 20 21  1  0  0  0  0
 21 22  2  0  0  0  0
 21 23  1  0  0  0  0
 23 24  1  0  0  0  0
 23 25  2  0  0  0  0
M  END
>  <InstanceId>
2V54_TYD_A_1205

>  <ChemCompId>
TYD

>  <PdbId>
2V54

>  <ChainId>
A

>  <ResidueNumber>
1205

>  <InsertionCode>


>  <Model>
1

>  <AltIds>


>  <MissingHeavyAtoms>
0

>  <ObservedFormula>
C10 N2 O11 P2

>  <Name>
THYMIDINE-5'-DIPHOSPHATE

>  <SystematicName>
[(2R,3S,5R)-3-hydroxy-5-(5-methyl-2,4-dioxo-pyrimidin-1-yl)oxolan-2-yl]methyl phosphono hydrogen phosphate

>  <Synonyms>


>  <Type>
NON-POLYMER

>  <Formula>
C10 H16 N2 O11 P2

>  <MolecularWeight>
402.188

>  <ModifiedDate>
2011-06-04

>  <Parent>


>  <OneLetterCode>


>  <SubcomponentList>


>  <AmbiguousFlag>
N

>  <InChI>
InChI=1S/C10H16N2O11P2/c1-5-3-12(10(15)11-9(5)14)8-2-6(13)7(22-8)4-21-25(19,20)23-24(16,17)18/h3,6-8,13H,2,4H2,1H3,(H,19,20)(H,11,14,15)(H2,16,17,18)/t6-,7+,8+/m0/s1

>  <InChIKey>
UJLXYODCHAELLY-XLPZGREQSA-N

>  <SMILES>
CC1=CN(C(=O)NC1=O)[C@H]2C[C@@H]([C@H](O2)CO[P@](=O)(O)OP(=O)(O)O)O

$$$$
