5EVB_3R9_A_403
  RCSB PDB08022001173D
Coordinates from PDB:5EVB:A:403 Model:1 without hydrogens
 13 14  0  0  0  0            999 V2000
  -15.2580   24.1950   -0.0030   O 0  0  0  0  0  0  0  0  0  0  0  0
  -17.4160   26.0340   -2.0790   N 0  0  0  0  0  0  0  0  0  0  0  0
  -16.2330   24.4040   -0.7410   C 0  0  0  0  0  0  0  0  0  0  0  0
  -17.2090   23.6950   -1.0540   O 0  0  0  0  0  0  0  0  0  0  0  0
  -16.1670   25.7820   -1.3950   C 0  0  0  0  0  0  0  0  0  0  0  0
  -15.0080   25.8260   -2.3830   C 0  0  0  0  0  0  0  0  0  0  0  0
  -15.5570   26.8200   -3.7840   S 0  0  0  0  0  0  0  0  0  0  0  0
  -17.3140   26.8270   -3.2750   C 0  0  0  0  0  0  0  0  0  0  0  0
  -17.7900   28.2340   -2.9040   C 0  0  0  0  0  0  0  0  0  0  0  0
  -18.3380   28.1710   -1.1970   S 0  0  0  0  0  0  0  0  0  0  0  0
  -18.5590   26.3960   -1.2970   C 0  0  0  0  0  0  0  0  0  0  0  0
  -19.8490   26.1550   -2.0610   C 0  0  0  0  0  0  0  0  0  0  0  0
  -21.2640   26.7350   -1.1130   S 0  0  0  0  0  0  0  0  0  0  0  0
  8  9  1  0  0  0  0
  8  7  1  0  0  0  0
  8  2  1  0  0  0  0
  9 10  1  0  0  0  0
 13 12  1  0  0  0  0
  7  6  1  0  0  0  0
 12 11  1  0  0  0  0
  2 11  1  0  0  0  0
  2  5  1  0  0  0  0
 11 10  1  0  0  0  0
  4  3  2  0  0  0  0
  6  5  1  0  0  0  0
  5  3  1  0  0  0  0
  3  1  1  0  0  0  0
M  END
>  <InstanceId>
5EVB_3R9_A_403

>  <ChemCompId>
3R9

>  <PdbId>
5EVB

>  <ChainId>
A

>  <ResidueNumber>
403

>  <InsertionCode>


>  <Model>
1

>  <AltIds>


>  <MissingHeavyAtoms>
0

>  <ObservedFormula>
C7 N O2 S3

>  <Name>
(3S,5S,7aR)-5-(sulfanylmethyl)tetrahydro[1,3]thiazolo[4,3-b][1,3]thiazole-3-carboxylic acid

>  <SystematicName>
(3S,5S,7aR)-5-(sulfanylmethyl)-3,5,7,7a-tetrahydro-2H-[1,3]thiazolo[3,2-c][1,3]thiazole-3-carboxylic acid

>  <Synonyms>


>  <Type>
NON-POLYMER

>  <Formula>
C7 H11 N O2 S3

>  <MolecularWeight>
237.363

>  <ModifiedDate>
2014-11-21

>  <Parent>


>  <OneLetterCode>


>  <SubcomponentList>


>  <AmbiguousFlag>
N

>  <InChI>
InChI=1S/C7H11NO2S3/c9-7(10)4-2-12-6-3-13-5(1-11)8(4)6/h4-6,11H,1-3H2,(H,9,10)/t4-,5+,6-/m1/s1

>  <InChIKey>
ZTWVMVSSSBGFHH-NGJCXOISSA-N

>  <SMILES>
C1[C@@H](N2[C@H](S1)CS[C@H]2CS)C(=O)O

$$$$
