5O9Y_9PN_A_601
  RCSB PDB08022002393D
Coordinates from PDB:5O9Y:A:601 Model:1 without hydrogens
 47 51  0  0  0  0            999 V2000
   -9.0710   13.3050   21.7740   C 0  0  0  0  0  0  0  0  0  0  0  0
   -9.5370   11.8680   22.0320   C 0  0  0  0  0  0  0  0  0  0  0  0
   -8.5510   11.1280   22.9410   C 0  0  0  0  0  0  0  0  0  0  0  0
  -10.1460   14.0690   21.0060   C 0  0  0  0  0  0  0  0  0  0  0  0
  -22.7860    6.6970   17.0190   C 0  0  0  0  0  0  0  0  0  0  0  0
  -23.0420    6.4160   15.6810   C 0  0  0  0  0  0  0  0  0  0  0  0
  -22.2130    6.9390   14.6930   C 0  0  0  0  0  0  0  0  0  0  0  0
  -21.1240    7.7420   15.0370   C 0  0  0  0  0  0  0  0  0  0  0  0
  -20.8540    8.0330   16.3760   C 0  0  0  0  0  0  0  0  0  0  0  0
  -21.6940    7.5040   17.3900   N 0  3  0  0  0  0  0  0  0  0  0  0
  -21.5010    7.7520   18.8480   C 0  0  0  0  0  0  0  0  0  0  0  0
  -20.1500    8.3420   19.1940   C 0  0  0  0  0  0  0  0  0  0  0  0
  -20.0010    8.0530   20.6710   C 0  0  0  0  0  0  0  0  0  0  0  0
  -18.7990    8.8780   21.1580   C 0  0  0  0  0  0  0  0  0  0  0  0
  -17.6070    8.4440   21.5260   C 0  0  0  0  0  0  0  0  0  0  0  0
  -18.8060   10.1960   21.2890   N 0  0  0  0  0  0  0  0  0  0  0  0
  -17.7210   10.5390   21.6980   N 0  0  0  0  0  0  0  0  0  0  0  0
  -16.9520    9.5580   21.8510   N 0  0  0  0  0  0  0  0  0  0  0  0
  -15.5720    9.6490   22.3620   C 0  0  0  0  0  0  0  0  0  0  0  0
  -14.8390   10.9480   21.9850   C 0  0  0  0  0  0  0  0  0  0  0  0
  -14.4600   10.8980   20.5970   O 0  0  0  0  0  0  0  0  0  0  0  0
  -15.8020    9.6020   23.7770   O 0  0  0  0  0  0  0  0  0  0  0  0
  -14.5890    9.6450   24.5480   C 0  0  0  0  0  0  0  0  0  0  0  0
  -14.8860    9.3680   26.0310   C 0  0  0  0  0  0  0  0  0  0  0  0
  -16.1860    9.8430   26.3560   O 0  0  0  0  0  0  0  0  0  0  0  0
  -13.9420   11.0000   24.3360   C 0  0  0  0  0  0  0  0  0  0  0  0
  -12.7400   11.1270   25.1170   O 0  0  0  0  0  0  0  0  0  0  0  0
  -13.5930   11.1320   22.8590   C 0  0  0  0  0  0  0  0  0  0  0  0
  -13.0720   12.4510   22.6660   O 0  0  0  0  0  0  0  0  0  0  0  0
  -11.8360   12.5110   21.9480   C 0  0  0  0  0  0  0  0  0  0  0  0
  -11.4830   13.9730   21.7350   C 0  0  0  0  0  0  0  0  0  0  0  0
  -12.5260   14.6020   20.9700   O 0  0  0  0  0  0  0  0  0  0  0  0
  -10.8010   11.8840   22.7130   O 0  0  0  0  0  0  0  0  0  0  0  0
   -8.4570   11.7990   24.2000   O 0  0  0  0  0  0  0  0  0  0  0  0
   -7.8540   13.2880   21.0110   O 0  0  0  0  0  0  0  0  0  0  0  0
   -9.7530   15.4470   20.9240   O 0  0  0  0  0  0  0  0  0  0  0  0
   -9.9870   16.0610   19.6470   C 0  0  0  0  0  0  0  0  0  0  0  0
   -9.2100   15.3910   18.6480   O 0  0  0  0  0  0  0  0  0  0  0  0
   -9.4690   15.9010   17.3310   C 0  0  0  0  0  0  0  0  0  0  0  0
   -8.7220   15.0090   16.3310   C 0  0  0  0  0  0  0  0  0  0  0  0
   -7.3700   14.8190   16.7590   O 0  0  0  0  0  0  0  0  0  0  0  0
   -9.0070   17.3550   17.2580   C 0  0  0  0  0  0  0  0  0  0  0  0
   -9.3560   17.9040   15.9770   O 0  0  0  0  0  0  0  0  0  0  0  0
   -9.7000   18.1770   18.3520   C 0  0  0  0  0  0  0  0  0  0  0  0
   -9.1190   19.4800   18.4100   O 0  0  0  0  0  0  0  0  0  0  0  0
   -9.5470   17.5160   19.7200   C 0  0  0  0  0  0  0  0  0  0  0  0
  -10.3310   18.2360   20.6820   O 0  0  0  0  0  0  0  0  0  0  0  0
  7  8  2  0  0  0  0
  7  6  1  0  0  0  0
  8  9  1  0  0  0  0
  6  5  2  0  0  0  0
 43 42  1  0  0  0  0
 40 41  1  0  0  0  0
 40 39  1  0  0  0  0
  9 10  2  0  0  0  0
  5 10  1  0  0  0  0
 42 39  1  0  0  0  0
 42 44  1  0  0  0  0
 39 38  1  0  0  0  0
 10 11  1  0  0  0  0
 44 45  1  0  0  0  0
 44 46  1  0  0  0  0
 38 37  1  0  0  0  0
 11 12  1  0  0  0  0
 12 13  1  0  0  0  0
 37 46  1  0  0  0  0
 37 36  1  0  0  0  0
 46 47  1  0  0  0  0
 21 20  1  0  0  0  0
 13 14  1  0  0  0  0
 36  4  1  0  0  0  0
 32 31  1  0  0  0  0
  4 31  1  0  0  0  0
  4  1  1  0  0  0  0
 35  1  1  0  0  0  0
 14 16  1  0  0  0  0
 14 15  2  0  0  0  0
 16 17  2  0  0  0  0
 15 18  1  0  0  0  0
 17 18  1  0  0  0  0
 31 30  1  0  0  0  0
  1  2  1  0  0  0  0
 18 19  1  0  0  0  0
 30 29  1  0  0  0  0
 30 33  1  0  0  0  0
 20 19  1  0  0  0  0
 20 28  1  0  0  0  0
  2 33  1  0  0  0  0
  2  3  1  0  0  0  0
 19 22  1  0  0  0  0
 29 28  1  0  0  0  0
 28 26  1  0  0  0  0
  3 34  1  0  0  0  0
 22 23  1  0  0  0  0
 26 23  1  0  0  0  0
 26 27  1  0  0  0  0
 23 24  1  0  0  0  0
 24 25  1  0  0  0  0
M  CHG  1  10   1
M  END
>  <InstanceId>
5O9Y_9PN_A_601

>  <ChemCompId>
9PN

>  <PdbId>
5O9Y

>  <ChainId>
A

>  <ResidueNumber>
601

>  <InsertionCode>


>  <Model>
1

>  <AltIds>


>  <MissingHeavyAtoms>
0

>  <ObservedFormula>
C28 N4 O15

>  <Name>
(2~{R},3~{S},4~{S},5~{R},6~{S})-2-(hydroxymethyl)-6-[(2~{R},3~{R},4~{S},5~{R},6~{S})-2-(hydroxymethyl)-6-[(2~{R},3~{R},4~{S},5~{R},6~{R})-2-(hydroxymethyl)-3,5-bis(oxidanyl)-6-[4-(3-pyridin-1-ium-1-ylpropyl)-1,2,3-triazol-1-yl]oxan-4-yl]oxy-3,5-bis(oxidanyl)oxan-4-yl]oxy-oxane-3,4,5-triol

>  <SystematicName>
(2~{R},3~{S},4~{S},5~{R},6~{S})-2-(hydroxymethyl)-6-[(2~{R},3~{R},4~{S},5~{R},6~{S})-2-(hydroxymethyl)-6-[(2~{R},3~{R},4~{S},5~{R},6~{R})-2-(hydroxymethyl)-3,5-bis(oxidanyl)-6-[4-(3-pyridin-1-ium-1-ylpropyl)-1,2,3-triazol-1-yl]oxan-4-yl]oxy-3,5-bis(oxidanyl)oxan-4-yl]oxy-oxane-3,4,5-triol

>  <Synonyms>


>  <Type>
NON-POLYMER

>  <Formula>
C28 H43 N4 O15

>  <MolecularWeight>
675.659

>  <ModifiedDate>
2018-04-27

>  <Parent>


>  <OneLetterCode>


>  <SubcomponentList>


>  <AmbiguousFlag>
N

>  <InChI>
InChI=1S/C28H43N4O15/c33-10-14-17(36)20(39)21(40)27(44-14)47-25-19(38)16(12-35)45-28(23(25)42)46-24-18(37)15(11-34)43-26(22(24)41)32-9-13(29-30-32)5-4-8-31-6-2-1-3-7-31/h1-3,6-7,9,14-28,33-42H,4-5,8,10-12H2/q+1/t14-,15-,16-,17-,18-,19-,20+,21-,22-,23-,24+,25+,26-,27+,28+/m1/s1

>  <InChIKey>
KBNJHYMTJQZFJJ-ZJLPYKFYSA-N

>  <SMILES>
c1cc[n+](cc1)CCCc2cn(nn2)[C@H]3[C@@H]([C@H]([C@@H]([C@H](O3)CO)O)O[C@H]4[C@@H]([C@H]([C@@H]([C@H](O4)CO)O)O[C@H]5[C@@H]([C@H]([C@@H]([C@H](O5)CO)O)O)O)O)O

$$$$
