5F60_5VZ_A_201
  RCSB PDB08022001193D
Coordinates from PDB:5F60:A:201 Model:1 without hydrogens
 37 40  0  0  0  0            999 V2000
    8.4840   36.8690   78.6060   C 0  0  0  0  0  0  0  0  0  0  0  0
   10.5850   38.0840   78.5840   C 0  0  0  0  0  0  0  0  0  0  0  0
   12.7940   39.0700   78.9470   C 0  0  0  0  0  0  0  0  0  0  0  0
   14.8880   40.1930   79.2100   C 0  0  0  0  0  0  0  0  0  0  0  0
   14.6890   38.4190   77.6770   C 0  0  0  0  0  0  0  0  0  0  0  0
   14.7900   36.6100   75.9840   C 0  0  0  0  0  0  0  0  0  0  0  0
   13.1570   34.9560   75.2340   C 0  0  0  0  0  0  0  0  0  0  0  0
    7.4750   35.5850   76.4720  Cl 0  0  0  0  0  0  0  0  0  0  0  0
    8.6570   36.5210   77.2600   C 0  0  0  0  0  0  0  0  0  0  0  0
    9.7870   36.9680   76.5470   C 0  0  0  0  0  0  0  0  0  0  0  0
    9.9510   36.6170   75.2280   N 0  0  0  0  0  0  0  0  0  0  0  0
   10.5370   37.6010   73.9810   S 0  0  0  0  0  0  0  0  0  0  0  0
    9.2060   38.7420   73.4940   C 0  0  0  0  0  0  0  0  0  0  0  0
    9.7700   39.6020   72.3450   C 0  0  0  0  0  0  0  0  0  0  0  0
    7.9930   37.9130   73.0120   C 0  0  0  0  0  0  0  0  0  0  0  0
    8.8090   39.6400   74.6920   C 0  0  0  0  0  0  0  0  0  0  0  0
   10.8740   36.6600   72.7980   O 0  0  0  0  0  0  0  0  0  0  0  0
   11.7530   38.4220   74.5010   O 0  0  0  0  0  0  0  0  0  0  0  0
   10.7270   37.7450   77.2290   C 0  0  0  0  0  0  0  0  0  0  0  0
    9.4430   37.6500   79.2720   C 0  0  0  0  0  0  0  0  0  0  0  0
   11.4850   38.8710   79.2520   N 0  0  0  0  0  0  0  0  0  0  0  0
   13.5410   40.0750   79.5980   C 0  0  0  0  0  0  0  0  0  0  0  0
   12.9440   40.9850   80.6140   C 0  0  0  0  0  0  0  0  0  0  0  0
   15.4170   39.3880   78.2680   N 0  0  0  0  0  0  0  0  0  0  0  0
   15.2680   37.6270   76.7470   N 0  0  0  0  0  0  0  0  0  0  0  0
   13.5280   36.0190   76.1010   C 0  0  0  0  0  0  0  0  0  0  0  0
   14.0540   34.4370   74.2710   C 0  0  0  0  0  0  0  0  0  0  0  0
   13.6890   33.4010   73.4280   N 0  0  0  0  0  0  0  0  0  0  0  0
   14.7000   32.4290   73.0420   C 0  0  0  0  0  0  0  0  0  0  0  0
   14.2070   31.2780   72.1250   C 0  0  0  0  0  0  0  0  0  0  0  0
   12.7900   31.4710   71.7160   N 0  0  0  0  0  0  0  0  0  0  0  0
   12.3290   30.4720   70.7180   C 0  0  0  0  0  0  0  0  0  0  0  0
   12.5820   32.8560   71.2370   C 0  0  0  0  0  0  0  0  0  0  0  0
   12.7130   33.8050   72.4410   C 0  0  0  0  0  0  0  0  0  0  0  0
   15.3240   35.0250   74.1800   C 0  0  0  0  0  0  0  0  0  0  0  0
   15.6890   36.0810   75.0250   C 0  0  0  0  0  0  0  0  0  0  0  0
   13.3980   38.2650   78.0400   N 0  0  0  0  0  0  0  0  0  0  0  0
  1  9  2  0  0  0  0
  1 20  1  0  0  0  0
  2 19  1  0  0  0  0
  2 20  2  0  0  0  0
  2 21  1  0  0  0  0
  3 21  1  0  0  0  0
  3 22  2  0  0  0  0
  3 37  1  0  0  0  0
  4 22  1  0  0  0  0
  4 24  2  0  0  0  0
  5 24  1  0  0  0  0
  5 25  1  0  0  0  0
  5 37  2  0  0  0  0
  6 25  1  0  0  0  0
  6 26  2  0  0  0  0
  6 36  1  0  0  0  0
  7 26  1  0  0  0  0
  7 27  2  0  0  0  0
  8  9  1  0  0  0  0
  9 10  1  0  0  0  0
 10 11  1  0  0  0  0
 10 19  2  0  0  0  0
 11 12  1  0  0  0  0
 12 13  1  0  0  0  0
 12 17  2  0  0  0  0
 12 18  2  0  0  0  0
 13 14  1  0  0  0  0
 13 15  1  0  0  0  0
 13 16  1  0  0  0  0
 22 23  1  0  0  0  0
 27 28  1  0  0  0  0
 27 35  1  0  0  0  0
 28 29  1  0  0  0  0
 28 34  1  0  0  0  0
 29 30  1  0  0  0  0
 30 31  1  0  0  0  0
 31 32  1  0  0  0  0
 31 33  1  0  0  0  0
 33 34  1  0  0  0  0
 35 36  2  0  0  0  0
M  END
>  <InstanceId>
5F60_5VZ_A_201

>  <ChemCompId>
5VZ

>  <PdbId>
5F60

>  <ChainId>
A

>  <ResidueNumber>
201

>  <InsertionCode>


>  <Model>
1

>  <AltIds>


>  <MissingHeavyAtoms>
0

>  <ObservedFormula>
C26 N7 O2 S Cl

>  <Name>
~{N}-[2-chloranyl-5-[[5-methyl-2-[[4-(4-methylpiperazin-1-yl)phenyl]amino]pyrimidin-4-yl]amino]phenyl]-2-methyl-propane-2-sulfonamide

>  <SystematicName>
~{N}-[2-chloranyl-5-[[5-methyl-2-[[4-(4-methylpiperazin-1-yl)phenyl]amino]pyrimidin-4-yl]amino]phenyl]-2-methyl-propane-2-sulfonamide

>  <Synonyms>


>  <Type>
NON-POLYMER

>  <Formula>
C26 H34 Cl N7 O2 S

>  <MolecularWeight>
544.112

>  <ModifiedDate>
2017-02-03

>  <Parent>


>  <OneLetterCode>


>  <SubcomponentList>


>  <AmbiguousFlag>
N

>  <InChI>
InChI=1S/C26H34ClN7O2S/c1-18-17-28-25(30-19-6-9-21(10-7-19)34-14-12-33(5)13-15-34)31-24(18)29-20-8-11-22(27)23(16-20)32-37(35,36)26(2,3)4/h6-11,16-17,32H,12-15H2,1-5H3,(H2,28,29,30,31)

>  <InChIKey>
OKUXIUAKYDKHDY-UHFFFAOYSA-N

>  <SMILES>
Cc1cnc(nc1Nc2ccc(c(c2)NS(=O)(=O)C(C)(C)C)Cl)Nc3ccc(cc3)N4CCN(CC4)C

$$$$
