1D4Y_TPV_A_501
  RCSB PDB08012014443D
Coordinates from PDB:1D4Y:A:501 Model:1 without hydrogens
 42 45  0  0  0  0            999 V2000
   13.5490   21.4220    6.0780   O 0  0  0  0  0  0  0  0  0  0  0  0
   12.4870   22.2020    6.1190   C 0  0  0  0  0  0  0  0  0  0  0  0
   12.5470   23.5480    5.4880   C 0  0  0  0  0  0  0  0  0  0  0  0
   13.8030   23.9390    4.9840   C 0  0  0  0  0  0  0  0  0  0  0  0
   15.0300   23.2520    5.6000   C 0  0  0  0  0  0  0  0  0  0  0  0
   14.8980   22.0240    5.8860   C 0  0  0  0  0  0  0  0  0  0  0  0
   11.4380   21.7180    6.4840   O 0  0  0  0  0  0  0  0  0  0  0  0
   13.9930   25.1280    4.4030   O 0  0  0  0  0  0  0  0  0  0  0  0
   15.6730   21.2240    4.7930   C 0  0  0  0  0  0  0  0  0  0  0  0
   14.9300   20.7870    3.8080   C 0  0  0  0  0  0  0  0  0  0  0  0
   15.3040   19.6110    2.9400   C 0  0  0  0  0  0  0  0  0  0  0  0
   15.0230   21.5580    7.3030   C 0  0  0  0  0  0  0  0  0  0  0  0
   16.3690   21.8390    7.8000   C 0  0  0  0  0  0  0  0  0  0  0  0
   17.1530   21.0430    8.7130   C 0  0  0  0  0  0  0  0  0  0  0  0
   16.6590   20.0120    9.5070   C 0  0  0  0  0  0  0  0  0  0  0  0
   17.5300   19.2810   10.3400   C 0  0  0  0  0  0  0  0  0  0  0  0
   18.9090   19.5970   10.3740   C 0  0  0  0  0  0  0  0  0  0  0  0
   19.4220   20.6060    9.5180   C 0  0  0  0  0  0  0  0  0  0  0  0
   18.5020   21.4760    8.9050   C 0  0  0  0  0  0  0  0  0  0  0  0
   11.2280   24.2070    5.1080   C 0  0  0  0  0  0  0  0  0  0  0  0
   10.5910   24.7000    3.7600   C 0  0  0  0  0  0  0  0  0  0  0  0
   10.5880   23.7940    2.5510   C 0  0  0  0  0  0  0  0  0  0  0  0
   10.8290   25.1040    6.3000   C 0  0  0  0  0  0  0  0  0  0  0  0
   11.7510   25.5550    7.2160   C 0  0  0  0  0  0  0  0  0  0  0  0
   11.3690   26.4890    8.2190   C 0  0  0  0  0  0  0  0  0  0  0  0
    9.9960   26.7460    8.4140   C 0  0  0  0  0  0  0  0  0  0  0  0
    9.0780   26.3430    7.4490   C 0  0  0  0  0  0  0  0  0  0  0  0
    7.3690   26.7380    7.8330   N 0  0  0  0  0  0  0  0  0  0  0  0
    9.5070   25.5850    6.3530   C 0  0  0  0  0  0  0  0  0  0  0  0
    6.9640   28.0460    6.9890   S 0  0  0  0  0  0  0  0  0  0  0  0
    8.0020   29.0910    7.3030   O 0  0  0  0  0  0  0  0  0  0  0  0
    5.6120   28.3680    7.3120   O 0  0  0  0  0  0  0  0  0  0  0  0
    7.1250   27.6670    5.2960   C 0  0  0  0  0  0  0  0  0  0  0  0
    8.2710   28.0670    4.6760   N 0  0  0  0  0  0  0  0  0  0  0  0
    8.3810   27.8220    3.3630   C 0  0  0  0  0  0  0  0  0  0  0  0
    7.4360   27.0880    2.6350   C 0  0  0  0  0  0  0  0  0  0  0  0
    6.2390   26.7490    3.2440   C 0  0  0  0  0  0  0  0  0  0  0  0
    6.0790   27.0450    4.6200   C 0  0  0  0  0  0  0  0  0  0  0  0
    7.7270   26.7580    1.1740   C 0  0  0  0  0  0  0  0  0  0  0  0
    8.3860   27.9150    0.6730   F 0  0  0  0  0  0  0  0  0  0  0  0
    6.5010   26.5110    0.5690   F 0  0  0  0  0  0  0  0  0  0  0  0
    8.5950   25.6360    1.2270   F 0  0  0  0  0  0  0  0  0  0  0  0
  1  2  1  0  0  0  0
  1  6  1  0  0  0  0
  2  3  1  0  0  0  0
  2  7  2  0  0  0  0
  3  4  2  0  0  0  0
  3 20  1  0  0  0  0
  4  5  1  0  0  0  0
  4  8  1  0  0  0  0
  5  6  1  0  0  0  0
  6  9  1  0  0  0  0
  6 12  1  0  0  0  0
  9 10  1  0  0  0  0
 10 11  1  0  0  0  0
 12 13  1  0  0  0  0
 13 14  1  0  0  0  0
 14 15  2  0  0  0  0
 14 19  1  0  0  0  0
 15 16  1  0  0  0  0
 16 17  2  0  0  0  0
 17 18  1  0  0  0  0
 18 19  2  0  0  0  0
 20 21  1  0  0  0  0
 20 23  1  0  0  0  0
 21 22  1  0  0  0  0
 23 24  2  0  0  0  0
 23 29  1  0  0  0  0
 24 25  1  0  0  0  0
 25 26  2  0  0  0  0
 26 27  1  0  0  0  0
 27 28  1  0  0  0  0
 27 29  2  0  0  0  0
 28 30  1  0  0  0  0
 30 31  2  0  0  0  0
 30 32  2  0  0  0  0
 30 33  1  0  0  0  0
 33 34  2  0  0  0  0
 33 38  1  0  0  0  0
 34 35  1  0  0  0  0
 35 36  2  0  0  0  0
 36 37  1  0  0  0  0
 36 39  1  0  0  0  0
 37 38  2  0  0  0  0
 39 40  1  0  0  0  0
 39 41  1  0  0  0  0
 39 42  1  0  0  0  0
M  END
>  <InstanceId>
1D4Y_TPV_A_501

>  <ChemCompId>
TPV

>  <PdbId>
1D4Y

>  <ChainId>
A

>  <ResidueNumber>
501

>  <InsertionCode>


>  <Model>
1

>  <AltIds>


>  <MissingHeavyAtoms>
0

>  <ObservedFormula>
C31 N2 O5 S F3

>  <Name>
N-(3-{(1R)-1-[(6R)-4-HYDROXY-2-OXO-6-PHENETHYL-6-PROPYL-5,6-DIHYDRO-2H-PYRAN-3-YL]PROPYL}PHENYL)-5-(TRIFLUOROMETHYL)-2-PYRIDINESULFONAMIDE

>  <SystematicName>
N-[3-[(1R)-1-[(6R)-4-hydroxy-2-oxo-6-phenethyl-6-propyl-5H-pyran-3-yl]propyl]phenyl]-5-(trifluoromethyl)pyridine-2-sulfonamide

>  <Synonyms>
TIPRANAVIR

>  <Type>
NON-POLYMER

>  <Formula>
C31 H33 F3 N2 O5 S

>  <MolecularWeight>
602.664

>  <ModifiedDate>
2011-06-04

>  <Parent>


>  <OneLetterCode>


>  <SubcomponentList>


>  <AmbiguousFlag>
N

>  <InChI>
InChI=1S/C31H33F3N2O5S/c1-3-16-30(17-15-21-9-6-5-7-10-21)19-26(37)28(29(38)41-30)25(4-2)22-11-8-12-24(18-22)36-42(39,40)27-14-13-23(20-35-27)31(32,33)34/h5-14,18,20,25,36-37H,3-4,15-17,19H2,1-2H3/t25-,30-/m1/s1

>  <InChIKey>
SUJUHGSWHZTSEU-FYBSXPHGSA-N

>  <SMILES>
CCC[C@]1(CC(=C(C(=O)O1)[C@H](CC)c2cccc(c2)NS(=O)(=O)c3ccc(cn3)C(F)(F)F)O)CCc4ccccc4

$$$$
