4MO4_ACP_A_500
  RCSB PDB08012022323D
Coordinates from PDB:4MO4:A:500 Model:1 without hydrogens
 27 29  0  0  0  0            999 V2000
   -2.9140  -42.7400   27.4000   P 0  0  0  0  0  0  0  0  0  0  0  0
   -1.8490  -41.6790   27.3470   O 0  0  0  0  0  0  0  0  0  0  0  0
   -2.5500  -43.9540   28.3140   O 0  0  0  0  0  0  0  0  0  0  0  0
   -3.3910  -43.3720   25.7760   C 0  0  0  0  0  0  0  0  0  0  0  0
   -4.4880  -41.2100   29.3350   P 0  0  0  0  0  0  0  0  0  0  0  0
   -4.6010  -39.7400   29.1610   O 0  0  0  0  0  0  0  0  0  0  0  0
   -3.3380  -41.4840   30.3150   O 0  0  0  0  0  0  0  0  0  0  0  0
   -4.2110  -42.0610   28.0280   O 0  0  0  0  0  0  0  0  0  0  0  0
   -5.8390  -41.8590   29.9200   O 0  0  0  0  0  0  0  0  0  0  0  0
   -5.8340  -43.1920   30.4680   C 0  0  0  0  0  0  0  0  0  0  0  0
   -6.1630  -43.0450   31.9300   C 0  0  0  0  0  0  0  0  0  0  0  0
   -7.3250  -42.2020   32.0600   O 0  0  0  0  0  0  0  0  0  0  0  0
   -6.5550  -44.3260   32.6530   C 0  0  0  0  0  0  0  0  0  0  0  0
   -5.4120  -45.0760   33.0580   O 0  0  0  0  0  0  0  0  0  0  0  0
   -7.3560  -43.7800   33.8400   C 0  0  0  0  0  0  0  0  0  0  0  0
   -6.5110  -43.3980   34.9180   O 0  0  0  0  0  0  0  0  0  0  0  0
   -8.0410  -42.5490   33.2320   C 0  0  0  0  0  0  0  0  0  0  0  0
   -9.4400  -42.7660   32.8960   N 0  0  0  0  0  0  0  0  0  0  0  0
   -9.9830  -43.0380   31.6560   C 0  0  0  0  0  0  0  0  0  0  0  0
  -11.2730  -43.2370   31.6730   N 0  0  0  0  0  0  0  0  0  0  0  0
  -11.6250  -43.0850   33.0170   C 0  0  0  0  0  0  0  0  0  0  0  0
  -12.8490  -43.1760   33.6930   C 0  0  0  0  0  0  0  0  0  0  0  0
  -14.0150  -43.4430   33.0980   N 0  0  0  0  0  0  0  0  0  0  0  0
  -12.8410  -42.9630   35.0310   N 0  0  0  0  0  0  0  0  0  0  0  0
  -11.6820  -42.6730   35.6300   C 0  0  0  0  0  0  0  0  0  0  0  0
  -10.4630  -42.5650   35.0930   N 0  0  0  0  0  0  0  0  0  0  0  0
  -10.4980  -42.7880   33.7610   C 0  0  0  0  0  0  0  0  0  0  0  0
  1  2  2  0  0  0  0
  1  3  1  0  0  0  0
  1  4  1  0  0  0  0
  1  8  1  0  0  0  0
  5  6  2  0  0  0  0
  5  7  1  0  0  0  0
  5  8  1  0  0  0  0
  5  9  1  0  0  0  0
  9 10  1  0  0  0  0
 10 11  1  0  0  0  0
 11 12  1  0  0  0  0
 11 13  1  0  0  0  0
 12 17  1  0  0  0  0
 13 14  1  0  0  0  0
 13 15  1  0  0  0  0
 15 16  1  0  0  0  0
 15 17  1  0  0  0  0
 17 18  1  0  0  0  0
 18 19  1  0  0  0  0
 18 27  1  0  0  0  0
 19 20  2  0  0  0  0
 20 21  1  0  0  0  0
 21 22  1  0  0  0  0
 21 27  2  0  0  0  0
 22 23  1  0  0  0  0
 22 24  2  0  0  0  0
 24 25  1  0  0  0  0
 25 26  2  0  0  0  0
 26 27  1  0  0  0  0
M  END
>  <InstanceId>
4MO4_ACP_A_500

>  <ChemCompId>
ACP

>  <PdbId>
4MO4

>  <ChainId>
A

>  <ResidueNumber>
500

>  <InsertionCode>


>  <Model>
1

>  <AltIds>


>  <MissingHeavyAtoms>
4

>  <ObservedFormula>
C11 N5 O9 P2

>  <Name>
PHOSPHOMETHYLPHOSPHONIC ACID ADENYLATE ESTER

>  <SystematicName>
[[[(2R,3S,4R,5R)-5-(6-aminopurin-9-yl)-3,4-dihydroxy-oxolan-2-yl]methoxy-hydroxy-phosphoryl]oxy-hydroxy-phosphoryl]methylphosphonic acid

>  <Synonyms>
ADENOSINE-5'-[BETA, GAMMA-METHYLENE]TRIPHOSPHATE

>  <Type>
NON-POLYMER

>  <Formula>
C11 H18 N5 O12 P3

>  <MolecularWeight>
505.208

>  <ModifiedDate>
2011-06-04

>  <Parent>


>  <OneLetterCode>


>  <SubcomponentList>


>  <AmbiguousFlag>
N

>  <InChI>
InChI=1S/C11H18N5O12P3/c12-9-6-10(14-2-13-9)16(3-15-6)11-8(18)7(17)5(27-11)1-26-31(24,25)28-30(22,23)4-29(19,20)21/h2-3,5,7-8,11,17-18H,1,4H2,(H,22,23)(H,24,25)(H2,12,13,14)(H2,19,20,21)/t5-,7-,8-,11-/m1/s1

>  <InChIKey>
UFZTZBNSLXELAL-IOSLPCCCSA-N

>  <SMILES>
c1nc(c2c(n1)n(cn2)[C@H]3[C@@H]([C@@H]([C@H](O3)CO[P@@](=O)(O)O[P@](=O)(CP(=O)(O)O)O)O)O)N

$$$$
