5VC3_DB8_A_601
  RCSB PDB08022003193D
Coordinates from PDB:5VC3:A:601 Model:1 without hydrogens
 36 39  0  0  0  0            999 V2000
   -4.3080    6.5080    7.7090   C 0  0  0  0  0  0  0  0  0  0  0  0
    1.8900    1.3030   10.4770   O 0  0  0  0  0  0  0  0  0  0  0  0
   -9.1860    8.9860    9.8210   C 0  0  0  0  0  0  0  0  0  0  0  0
   -2.0910    1.0240   14.0470   N 0  0  0  0  0  0  0  0  0  0  0  0
    1.2430   -1.5040   10.9970  Cl 0  0  0  0  0  0  0  0  0  0  0  0
   -3.8580    0.0970   11.3290  Cl 0  0  0  0  0  0  0  0  0  0  0  0
   -2.7270    1.8920   13.6470   C 0  0  0  0  0  0  0  0  0  0  0  0
   -4.2850    3.4860   14.1470   C 0  0  0  0  0  0  0  0  0  0  0  0
   -1.2550   -0.5520   11.1310   C 0  0  0  0  0  0  0  0  0  0  0  0
   -0.4230    2.0860   10.6310   C 0  0  0  0  0  0  0  0  0  0  0  0
   -5.9960    6.0940   12.2830   C 0  0  0  0  0  0  0  0  0  0  0  0
   -4.4130    5.0170   10.2200   C 0  0  0  0  0  0  0  0  0  0  0  0
   -8.4450    9.4620   11.0990   C 0  0  0  0  0  0  0  0  0  0  0  0
   -7.6330    8.3290   11.7710   C 0  0  0  0  0  0  0  0  0  0  0  0
  -13.0820   12.7040    7.7830   C 0  0  0  0  0  0  0  0  0  0  0  0
   -9.7440   10.8330    8.1880   C 0  0  0  0  0  0  0  0  0  0  0  0
  -11.5470    9.4200    9.0480   C 0  0  0  0  0  0  0  0  0  0  0  0
  -10.7240   12.0110    7.9800   C 0  0  0  0  0  0  0  0  0  0  0  0
  -12.5640   10.5780    8.9160   C 0  0  0  0  0  0  0  0  0  0  0  0
   -5.0840    4.5160   13.8030   N 0  0  0  0  0  0  0  0  0  0  0  0
   -2.6940    2.8410   10.7980   N 0  0  0  0  0  0  0  0  0  0  0  0
   -5.3820    6.6650    8.6830   O 0  0  0  0  0  0  0  0  0  0  0  0
   -6.9030    7.6830   10.7100   O 0  0  0  0  0  0  0  0  0  0  0  0
    0.5460    1.0630   10.6750   C 0  0  0  0  0  0  0  0  0  0  0  0
    0.1120   -0.2540   10.9260   C 0  0  0  0  0  0  0  0  0  0  0  0
   -2.2150    0.4780   11.0760   C 0  0  0  0  0  0  0  0  0  0  0  0
   -3.4520    2.8780   13.1840   C 0  0  0  0  0  0  0  0  0  0  0  0
   -1.7950    1.8110   10.8340   C 0  0  0  0  0  0  0  0  0  0  0  0
   -5.2730    6.1020    9.9440   C 0  0  0  0  0  0  0  0  0  0  0  0
   -6.0690    6.6310   10.9880   C 0  0  0  0  0  0  0  0  0  0  0  0
   -3.4660    3.3640   11.8280   C 0  0  0  0  0  0  0  0  0  0  0  0
   -5.1350    5.0150   12.5500   C 0  0  0  0  0  0  0  0  0  0  0  0
   -4.3260    4.4590   11.5190   C 0  0  0  0  0  0  0  0  0  0  0  0
  -10.1930    9.9810    9.3300   N 0  0  0  0  0  0  0  0  0  0  0  0
  -12.1440   11.5520    7.8620   N 0  0  0  0  0  0  0  0  0  0  0  0
    2.3240    2.5830    9.9560   C 0  0  0  0  0  0  0  0  0  0  0  0
  1 22  1  0  0  0  0
 24  2  1  0  0  0  0
 36  2  1  0  0  0  0
 34  3  1  0  0  0  0
 13  3  1  0  0  0  0
  7  4  3  0  0  0  0
  5 25  1  0  0  0  0
  6 26  1  0  0  0  0
 27  7  1  0  0  0  0
 27  8  2  0  0  0  0
 20  8  1  0  0  0  0
  9 26  2  0  0  0  0
  9 25  1  0  0  0  0
 28 10  2  0  0  0  0
 24 10  1  0  0  0  0
 30 11  2  0  0  0  0
 11 32  1  0  0  0  0
 29 12  2  0  0  0  0
 12 33  1  0  0  0  0
 13 14  1  0  0  0  0
 23 14  1  0  0  0  0
 15 35  1  0  0  0  0
 34 16  1  0  0  0  0
 18 16  1  0  0  0  0
 19 17  1  0  0  0  0
 17 34  1  0  0  0  0
 35 18  1  0  0  0  0
 19 35  1  0  0  0  0
 32 20  2  0  0  0  0
 28 21  1  0  0  0  0
 21 31  1  0  0  0  0
 22 29  1  0  0  0  0
 23 30  1  0  0  0  0
 25 24  2  0  0  0  0
 26 28  1  0  0  0  0
 31 27  1  0  0  0  0
 29 30  1  0  0  0  0
 33 31  2  0  0  0  0
 33 32  1  0  0  0  0
M  END
>  <InstanceId>
5VC3_DB8_A_601

>  <ChemCompId>
DB8

>  <PdbId>
5VC3

>  <ChainId>
A

>  <ResidueNumber>
601

>  <InsertionCode>


>  <Model>
1

>  <AltIds>


>  <MissingHeavyAtoms>
0

>  <ObservedFormula>
C26 N5 O3 Cl2

>  <Name>
4-[(2,4-dichloro-5-methoxyphenyl)amino]-6-methoxy-7-[3-(4-methylpiperazin-1-yl)propoxy]quinoline-3-carbonitrile

>  <SystematicName>
4-[[2,4-bis(chloranyl)-5-methoxy-phenyl]amino]-6-methoxy-7-[3-(4-methylpiperazin-1-yl)propoxy]quinoline-3-carbonitrile

>  <Synonyms>
Bosutinib

>  <Type>
NON-POLYMER

>  <Formula>
C26 H29 Cl2 N5 O3

>  <MolecularWeight>
530.446

>  <ModifiedDate>
2020-06-17

>  <Parent>


>  <OneLetterCode>


>  <SubcomponentList>


>  <AmbiguousFlag>
N

>  <InChI>
InChI=1S/C26H29Cl2N5O3/c1-32-6-8-33(9-7-32)5-4-10-36-25-13-21-18(11-24(25)35-3)26(17(15-29)16-30-21)31-22-14-23(34-2)20(28)12-19(22)27/h11-14,16H,4-10H2,1-3H3,(H,30,31)

>  <InChIKey>
UBPYILGKFZZVDX-UHFFFAOYSA-N

>  <SMILES>
CN1CCN(CC1)CCCOc2cc3c(cc2OC)c(c(cn3)C#N)Nc4cc(c(cc4Cl)Cl)OC

$$$$
