4CA7_3EF_A_1715
  RCSB PDB08012021203D
Coordinates from PDB:4CA7:A:1715 Model:1 without hydrogens
 51 55  0  0  0  0            999 V2000
   24.3480    1.4950   11.5670   O 0  0  0  0  0  0  0  0  0  0  0  0
   25.1730    4.6820   17.6130   C 0  0  0  0  0  0  0  0  0  0  0  0
   24.2360    5.2470   16.7440   C 0  0  0  0  0  0  0  0  0  0  0  0
   25.7940    3.4690   17.2900   C 0  0  0  0  0  0  0  0  0  0  0  0
   23.9140    4.5970   15.5460   C 0  0  0  0  0  0  0  0  0  0  0  0
   25.4660    2.8130   16.0920   C 0  0  0  0  0  0  0  0  0  0  0  0
   24.1910    2.7190   14.0160   C 0  0  0  0  0  0  0  0  0  0  0  0
   25.4070    2.1860   13.4630   O 0  0  0  0  0  0  0  0  0  0  0  0
   25.3760    1.5470   12.2530   C 0  0  0  0  0  0  0  0  0  0  0  0
   24.5180    3.3740   15.2280   C 0  0  0  0  0  0  0  0  0  0  0  0
   27.9020   -1.8030   11.8380   O 0  0  0  0  0  0  0  0  0  0  0  0
   26.6850   -1.5190   11.0590   P 0  0  0  0  0  0  0  0  0  0  0  0
   25.3740   -1.9020   11.6190   O 0  0  0  0  0  0  0  0  0  0  0  0
   26.6290    0.2590   10.5750   C 0  0  0  0  0  0  0  0  0  0  0  0
   26.5030    0.9650   11.8450   N 0  0  0  0  0  0  0  0  0  0  0  0
   27.8800    0.8150    9.8380   C 0  0  0  0  0  0  0  0  0  0  0  0
   27.7620    2.2230    9.6510   C 0  0  0  0  0  0  0  0  0  0  0  0
   27.1170    2.7430    8.5230   C 0  0  0  0  0  0  0  0  0  0  0  0
   26.9870    4.1270    8.3430   C 0  0  0  0  0  0  0  0  0  0  0  0
   27.5200    5.0210    9.2810   C 0  0  0  0  0  0  0  0  0  0  0  0
   28.1760    4.5110   10.4180   C 0  0  0  0  0  0  0  0  0  0  0  0
   28.2940    3.1290   10.5880   C 0  0  0  0  0  0  0  0  0  0  0  0
   29.5250   -2.5790    9.2090   O 0  0  0  0  0  0  0  0  0  0  0  0
   26.9530  -11.5990   11.7530   C 0  0  0  0  0  0  0  0  0  0  0  0
   26.6390  -10.3370   12.2730   C 0  0  0  0  0  0  0  0  0  0  0  0
   27.4320  -11.7120   10.4440   C 0  0  0  0  0  0  0  0  0  0  0  0
   26.8160   -9.1850   11.4960   C 0  0  0  0  0  0  0  0  0  0  0  0
   27.6010  -10.5610    9.6750   C 0  0  0  0  0  0  0  0  0  0  0  0
   26.9700   -6.9810    9.6180   C 0  0  0  0  0  0  0  0  0  0  0  0
   27.0210   -4.6840    8.4190   C 0  0  0  0  0  0  0  0  0  0  0  0
   26.8290   -2.3960    9.4110   C 0  0  0  0  0  0  0  0  0  0  0  0
   28.2000   -8.2480    8.3020   N 0  0  0  0  0  0  0  0  0  0  0  0
   28.1080   -6.8460    7.7490   O 0  0  0  0  0  0  0  0  0  0  0  0
   29.0120   -3.6350    9.5900   C 0  0  0  0  0  0  0  0  0  0  0  0
   27.3620   -6.1750    8.6120   C 0  0  0  0  0  0  0  0  0  0  0  0
   27.3010   -9.2900   10.1920   C 0  0  0  0  0  0  0  0  0  0  0  0
   27.4750   -8.2150    9.4190   C 0  0  0  0  0  0  0  0  0  0  0  0
   27.4770   -3.7880    9.5930   C 0  0  0  0  0  0  0  0  0  0  0  0
   29.7280   -4.7100    9.9780   N 0  0  0  0  0  0  0  0  0  0  0  0
   31.2190   -4.6850    9.9560   C 0  0  0  0  0  0  0  0  0  0  0  0
   31.7560   -4.6380    8.5000   C 0  0  0  0  0  0  0  0  0  0  0  0
   33.0010   -4.5370    8.3450   O 0  0  0  0  0  0  0  0  0  0  0  0
   31.8860   -5.9200   10.5640   C 0  0  0  0  0  0  0  0  0  0  0  0
   31.2090   -6.9100   11.2690   C 0  0  0  0  0  0  0  0  0  0  0  0
   31.2710   -8.2320   10.8130   C 0  0  0  0  0  0  0  0  0  0  0  0
   30.5470   -6.6000   12.4630   C 0  0  0  0  0  0  0  0  0  0  0  0
   30.6380   -9.2530   11.5370   C 0  0  0  0  0  0  0  0  0  0  0  0
   29.9190   -7.6180   13.1830   C 0  0  0  0  0  0  0  0  0  0  0  0
   29.9730   -8.9350   12.7270   C 0  0  0  0  0  0  0  0  0  0  0  0
   29.3600   -9.9050   13.4590   O 0  0  0  0  0  0  0  0  0  0  0  0
   30.9140   -4.7190    7.5720   O 0  0  0  0  0  0  0  0  0  0  0  0
 42 41  2  0  0  0  0
 41 40  1  0  0  0  0
 41 51  1  0  0  0  0
 40 39  1  0  0  0  0
 39 34  1  0  0  0  0
 43 40  1  0  0  0  0
 44 43  1  0  0  0  0
 45 44  2  0  0  0  0
 44 46  1  0  0  0  0
 50 49  1  0  0  0  0
 47 49  2  0  0  0  0
 49 48  1  0  0  0  0
  9  1  2  0  0  0  0
 34 23  2  0  0  0  0
 11 12  2  0  0  0  0
 12 13  1  0  0  0  0
  4  2  2  0  0  0  0
  2  3  1  0  0  0  0
 21 20  2  0  0  0  0
 19 20  1  0  0  0  0
 25 24  2  0  0  0  0
 24 26  1  0  0  0  0
  5  3  2  0  0  0  0
  6  4  1  0  0  0  0
 18 19  2  0  0  0  0
 22 21  1  0  0  0  0
 25 27  1  0  0  0  0
 26 28  2  0  0  0  0
 10  5  1  0  0  0  0
  6 10  2  0  0  0  0
 17 18  1  0  0  0  0
 17 22  2  0  0  0  0
 27 36  2  0  0  0  0
 28 36  1  0  0  0  0
 37 29  1  0  0  0  0
 29 35  2  0  0  0  0
  8  7  1  0  0  0  0
  7 10  1  0  0  0  0
 35 30  1  0  0  0  0
 30 38  1  0  0  0  0
 16 14  1  0  0  0  0
 16 17  1  0  0  0  0
 38 31  1  0  0  0  0
 31 12  1  0  0  0  0
 37 32  2  0  0  0  0
 32 33  1  0  0  0  0
 14 15  1  0  0  0  0
 15  9  1  0  0  0  0
  9  8  1  0  0  0  0
 33 35  1  0  0  0  0
 34 38  1  0  0  0  0
 36 37  1  0  0  0  0
 12 14  1  0  0  0  0
 47 45  1  0  0  0  0
 48 46  2  0  0  0  0
M  END
>  <InstanceId>
4CA7_3EF_A_1715

>  <ChemCompId>
3EF

>  <PdbId>
4CA7

>  <ChainId>
A

>  <ResidueNumber>
1715

>  <InsertionCode>


>  <Model>
1

>  <AltIds>


>  <MissingHeavyAtoms>
0

>  <ObservedFormula>
C38 N3 O9 P

>  <Name>
N-{(2S)-3-[(S)-[(1R)-1-{[(benzyloxy)carbonyl]amino}-2-phenylethyl](hydroxy)phosphoryl]-2-[(3-phenyl-1,2-oxazol-5-yl)methyl]propanoyl}-L-tyrosine

>  <SystematicName>
(2S)-3-(4-hydroxyphenyl)-2-[[(2S)-2-[[oxidanyl-[(1R)-2-phenyl-1-(phenylmethoxycarbonylamino)ethyl]phosphoryl]methyl]-3-(3-phenyl-1,2-oxazol-5-yl)propanoyl]amino]propanoic acid

>  <Synonyms>


>  <Type>
NON-POLYMER

>  <Formula>
C38 H38 N3 O9 P

>  <MolecularWeight>
711.697

>  <ModifiedDate>
2013-12-06

>  <Parent>


>  <OneLetterCode>


>  <SubcomponentList>
PHQ PPH 1JK TYR

>  <AmbiguousFlag>
N

>  <InChI>
InChI=1S/C38H38N3O9P/c42-31-18-16-27(17-19-31)20-34(37(44)45)39-36(43)30(22-32-23-33(41-50-32)29-14-8-3-9-15-29)25-51(47,48)35(21-26-10-4-1-5-11-26)40-38(46)49-24-28-12-6-2-7-13-28/h1-19,23,30,34-35,42H,20-22,24-25H2,(H,39,43)(H,40,46)(H,44,45)(H,47,48)/t30-,34+,35-/m1/s1

>  <InChIKey>
ZPFSKFCSVXPMBD-JHOVWCEZSA-N

>  <SMILES>
c1ccc(cc1)C[C@H](NC(=O)OCc2ccccc2)P(=O)(C[C@@H](Cc3cc(no3)c4ccccc4)C(=O)N[C@@H](Cc5ccc(cc5)O)C(=O)O)O

$$$$
