6EJ2_B7E_A_901
  RCSB PDB08022004313D
Coordinates from PDB:6EJ2:A:901 Model:1 without hydrogens
 28 32  0  0  0  0            999 V2000
  -15.1560  -32.8610  -11.6810   C 0  0  0  0  0  0  0  0  0  0  0  0
  -16.2090  -34.9720  -11.0180   C 0  0  0  0  0  0  0  0  0  0  0  0
  -17.6330  -37.3460   -9.8130   C 0  0  0  0  0  0  0  0  0  0  0  0
  -16.5190  -37.4990  -10.8740   C 0  0  0  0  0  0  0  0  0  0  0  0
  -16.3570  -36.2830  -11.8170   C 0  0  0  0  0  0  0  0  0  0  0  0
  -15.1250  -36.5280  -12.7070   C 0  0  0  0  0  0  0  0  0  0  0  0
  -19.0410  -37.4580  -10.4720   C 0  0  0  0  0  0  0  0  0  0  0  0
  -19.9420  -38.0220   -9.3810   C 0  0  0  0  0  0  0  0  0  0  0  0
  -21.3360  -37.9960   -9.2540   C 0  0  0  0  0  0  0  0  0  0  0  0
  -21.9550  -38.5920   -8.1580   C 0  0  0  0  0  0  0  0  0  0  0  0
  -21.1740  -39.2040   -7.1550   C 0  0  0  0  0  0  0  0  0  0  0  0
  -17.6970  -38.5280   -8.7970   C 0  0  0  0  0  0  0  0  0  0  0  0
  -17.1810  -39.9070   -9.2880   C 0  0  0  0  0  0  0  0  0  0  0  0
  -16.2460  -39.3730   -7.2910   C 0  0  0  0  0  0  0  0  0  0  0  0
  -16.8790  -38.2910   -7.5990   N 0  0  0  0  0  0  0  0  0  0  0  0
  -23.4890  -41.3260   -5.1160   N 0  0  0  0  0  0  0  0  0  0  0  0
  -23.0080  -40.6430   -6.1540   C 0  0  0  0  0  0  0  0  0  0  0  0
  -16.1820  -33.8410  -11.9160   O 0  0  0  0  0  0  0  0  0  0  0  0
  -17.3830  -34.7710  -10.0360   C 0  0  0  0  0  0  0  0  0  0  0  0
  -17.5240  -35.9800   -9.0880   C 0  0  0  0  0  0  0  0  0  0  0  0
  -19.7710  -39.2380   -7.3000   C 0  0  0  0  0  0  0  0  0  0  0  0
  -19.1550  -38.6510   -8.4080   C 0  0  0  0  0  0  0  0  0  0  0  0
  -16.4590  -40.4000   -8.1290   O 0  0  0  0  0  0  0  0  0  0  0  0
  -15.4240  -39.4470   -6.2010   N 0  0  0  0  0  0  0  0  0  0  0  0
  -21.8080  -39.9170   -6.0060   C 0  0  0  0  0  0  0  0  0  0  0  0
  -21.1620  -40.0180   -4.7590   C 0  0  0  0  0  0  0  0  0  0  0  0
  -21.6970  -40.7350   -3.7770   N 0  0  0  0  0  0  0  0  0  0  0  0
  -22.8510  -41.3650   -3.9520   C 0  0  0  0  0  0  0  0  0  0  0  0
  6  5  1  0  0  0  0
 18  1  1  0  0  0  0
 18  2  1  0  0  0  0
  5  2  1  0  0  0  0
  5  4  1  0  0  0  0
  2 19  1  0  0  0  0
  4  3  1  0  0  0  0
  7  3  1  0  0  0  0
  7  8  1  0  0  0  0
 19 20  1  0  0  0  0
  3 20  1  0  0  0  0
  3 12  1  0  0  0  0
  8  9  2  0  0  0  0
  8 22  1  0  0  0  0
 13 12  1  0  0  0  0
 13 23  1  0  0  0  0
  9 10  1  0  0  0  0
 12 22  1  0  0  0  0
 12 15  1  0  0  0  0
 22 21  2  0  0  0  0
 10 11  2  0  0  0  0
 23 14  1  0  0  0  0
 15 14  2  0  0  0  0
 21 11  1  0  0  0  0
 14 24  1  0  0  0  0
 11 25  1  0  0  0  0
 17 25  2  0  0  0  0
 17 16  1  0  0  0  0
 25 26  1  0  0  0  0
 16 28  2  0  0  0  0
 26 27  2  0  0  0  0
 28 27  1  0  0  0  0
M  END
>  <InstanceId>
6EJ2_B7E_A_901

>  <ChemCompId>
B7E

>  <PdbId>
6EJ2

>  <ChainId>
A

>  <ResidueNumber>
901

>  <InsertionCode>


>  <Model>
1

>  <AltIds>


>  <MissingHeavyAtoms>
0

>  <ObservedFormula>
C22 N4 O2

>  <Name>
compound 28

>  <SystematicName>


>  <Synonyms>


>  <Type>
NON-POLYMER

>  <Formula>
C22 H26 N4 O2

>  <MolecularWeight>
378.467

>  <ModifiedDate>
2018-04-13

>  <Parent>


>  <OneLetterCode>


>  <SubcomponentList>


>  <AmbiguousFlag>
N

>  <InChI>
InChI=1S/C22H26N4O2/c1-14-8-21(6-5-19(14)27-2)9-16-4-3-15(17-10-24-13-25-11-17)7-18(16)22(21)12-28-20(23)26-22/h3-4,7,10-11,13-14,19H,5-6,8-9,12H2,1-2H3,(H2,23,26)/t14-,19-,21-,22-/m0/s1

>  <InChIKey>
LNZBKHMXPFCMOB-GLYDZZHWSA-N

>  <SMILES>
C[C@H]1C[C@@]2(CC[C@@H]1OC)Cc3ccc(cc3[C@@]24COC(=N4)N)c5cncnc5

$$$$
