3MIY_B49_A_1
  RCSB PDB08012019483D
Coordinates from PDB:3MIY:A:1 Model:1 without hydrogens
 29 31  0  0  0  0            999 V2000
   10.5610  -11.6350   -2.8360   C 0  0  0  0  0  0  0  0  0  0  0  0
    0.8180  -11.2260   -3.0830   C 0  0  0  0  0  0  0  0  0  0  0  0
    1.7270  -11.3090   -4.1250   C 0  0  0  0  0  0  0  0  0  0  0  0
    2.6100  -11.2980   -1.4790   C 0  0  0  0  0  0  0  0  0  0  0  0
    7.9420  -11.5120   -0.1900   C 0  0  0  0  0  0  0  0  0  0  0  0
    1.2570  -11.2200   -1.7640   C 0  0  0  0  0  0  0  0  0  0  0  0
    3.5300  -11.3890   -2.5250   C 0  0  0  0  0  0  0  0  0  0  0  0
    5.0050  -11.4700   -2.5610   C 0  0  0  0  0  0  0  0  0  0  0  0
    5.3460  -11.5420   -3.9980   C 0  0  0  0  0  0  0  0  0  0  0  0
   10.4690  -11.5920    0.3730   C 0  0  0  0  0  0  0  0  0  0  0  0
    7.3610  -11.4770    1.2050   C 0  0  0  0  0  0  0  0  0  0  0  0
    5.7950  -11.4620   -1.4240   C 0  0  0  0  0  0  0  0  0  0  0  0
    9.3450  -11.5880   -1.9490   C 0  0  0  0  0  0  0  0  0  0  0  0
    3.0930  -11.3830   -3.8580   C 0  0  0  0  0  0  0  0  0  0  0  0
    7.2060  -11.5120   -1.3630   C 0  0  0  0  0  0  0  0  0  0  0  0
    9.3100  -11.5650   -0.5570   C 0  0  0  0  0  0  0  0  0  0  0  0
    8.0870  -11.5540   -2.4190   N 0  0  0  0  0  0  0  0  0  0  0  0
    4.1970  -11.4790   -4.6940   N 0  0  0  0  0  0  0  0  0  0  0  0
   11.6280  -12.1850    0.0040   N 0  0  0  0  0  0  0  0  0  0  0  0
    6.4540  -11.6450   -4.4990   O 0  0  0  0  0  0  0  0  0  0  0  0
   10.3710  -11.0870    1.4770   O 0  0  0  0  0  0  0  0  0  0  0  0
    0.3610  -11.1370   -0.7560   F 0  0  0  0  0  0  0  0  0  0  0  0
   12.7940  -12.2330    0.8970   C 0  0  0  0  0  0  0  0  0  0  0  0
   13.6290  -10.9610    0.7200   C 0  0  0  0  0  0  0  0  0  0  0  0
   14.5910  -11.1470   -0.3810   N 0  0  0  0  0  0  0  0  0  0  0  0
   14.2440  -10.4840   -1.6560   C 0  0  0  0  0  0  0  0  0  0  0  0
   15.9710  -10.8690    0.0440   C 0  0  0  0  0  0  0  0  0  0  0  0
   16.7780  -12.1710    0.0370   C 0  0  0  0  0  0  0  0  0  0  0  0
   13.4420   -9.1880   -1.4780   C 0  0  0  0  0  0  0  0  0  0  0  0
  1 13  1  0  0  0  0
  2  3  2  0  0  0  0
  2  6  1  0  0  0  0
  3 14  1  0  0  0  0
  4  6  2  0  0  0  0
  4  7  1  0  0  0  0
  5 11  1  0  0  0  0
  5 15  2  0  0  0  0
  5 16  1  0  0  0  0
  6 22  1  0  0  0  0
  7  8  1  0  0  0  0
  7 14  2  0  0  0  0
  8  9  1  0  0  0  0
  8 12  2  0  0  0  0
  9 18  1  0  0  0  0
  9 20  2  0  0  0  0
 10 16  1  0  0  0  0
 10 19  1  0  0  0  0
 10 21  2  0  0  0  0
 12 15  1  0  0  0  0
 13 16  2  0  0  0  0
 13 17  1  0  0  0  0
 14 18  1  0  0  0  0
 15 17  1  0  0  0  0
 19 23  1  0  0  0  0
 23 24  1  0  0  0  0
 24 25  1  0  0  0  0
 25 26  1  0  0  0  0
 25 27  1  0  0  0  0
 27 28  1  0  0  0  0
 26 29  1  0  0  0  0
M  END
>  <InstanceId>
3MIY_B49_A_1

>  <ChemCompId>
B49

>  <PdbId>
3MIY

>  <ChainId>
A

>  <ResidueNumber>
1

>  <InsertionCode>


>  <Model>
1

>  <AltIds>


>  <MissingHeavyAtoms>
0

>  <ObservedFormula>
C22 N4 O2 F

>  <Name>
N-[2-(diethylamino)ethyl]-5-[(Z)-(5-fluoro-2-oxo-1,2-dihydro-3H-indol-3-ylidene)methyl]-2,4-dimethyl-1H-pyrrole-3-carbo xamide

>  <SystematicName>
N-(2-diethylaminoethyl)-5-[(Z)-(5-fluoranyl-2-oxidanylidene-1H-indol-3-ylidene)methyl]-2,4-dimethyl-1H-pyrrole-3-carboxamide

>  <Synonyms>
SUNITINIB

>  <Type>
NON-POLYMER

>  <Formula>
C22 H27 F N4 O2

>  <MolecularWeight>
398.474

>  <ModifiedDate>
2020-06-17

>  <Parent>


>  <OneLetterCode>


>  <SubcomponentList>


>  <AmbiguousFlag>
N

>  <InChI>
InChI=1S/C22H27FN4O2/c1-5-27(6-2)10-9-24-22(29)20-13(3)19(25-14(20)4)12-17-16-11-15(23)7-8-18(16)26-21(17)28/h7-8,11-12,25H,5-6,9-10H2,1-4H3,(H,24,29)(H,26,28)/b17-12-

>  <InChIKey>
WINHZLLDWRZWRT-ATVHPVEESA-N

>  <SMILES>
CCN(CC)CCNC(=O)c1c(c([nH]c1C)/C=C\2/c3cc(ccc3NC2=O)F)C

$$$$
