6E7J_HWY_A_201
  RCSB PDB08022004293D
Coordinates from PDB:6E7J:A:201 Model:1 without hydrogens
 46 50  0  0  0  0            999 V2000
   14.7310   21.5690   16.8720   C 0  0  0  0  0  0  0  0  0  0  0  0
   16.1940   22.4780   15.0250   C 0  0  0  0  0  0  0  0  0  0  0  0
   15.4330   22.9730   18.8550   C 0  0  0  0  0  0  0  0  0  0  0  0
   16.2810   24.1710   18.3810   C 0  0  0  0  0  0  0  0  0  0  0  0
   17.8260   23.9980   18.7030   C 0  0  0  0  0  0  0  0  0  0  0  0
   19.3650   24.7160   17.0400   C 0  0  0  0  0  0  0  0  0  0  0  0
   19.4840   23.6830   16.3710   O 0  0  0  0  0  0  0  0  0  0  0  0
   20.9190   25.4990   15.3710   C 0  0  0  0  0  0  0  0  0  0  0  0
   22.3030   27.4620   15.4330   C 0  0  0  0  0  0  0  0  0  0  0  0
   22.2170   27.8720   17.6910   C 0  0  0  0  0  0  0  0  0  0  0  0
   23.0950   26.3950   16.1330   C 0  0  0  0  0  0  0  0  0  0  0  0
   21.8170   28.4520   18.6780   O 0  0  0  0  0  0  0  0  0  0  0  0
   21.7270   28.2890   16.4920   O 0  0  0  0  0  0  0  0  0  0  0  0
   23.0930   26.9000   17.5110   N 0  0  0  0  0  0  0  0  0  0  0  0
   23.9540   26.4430   18.5470   C 0  0  0  0  0  0  0  0  0  0  0  0
   24.5650   25.2170   18.3730   C 0  0  0  0  0  0  0  0  0  0  0  0
   25.4260   24.7100   19.3670   C 0  0  0  0  0  0  0  0  0  0  0  0
   25.6240   25.4400   20.5140   C 0  0  0  0  0  0  0  0  0  0  0  0
   25.0280   26.6660   20.6940   C 0  0  0  0  0  0  0  0  0  0  0  0
   24.1530   27.1600   19.7070   C 0  0  0  0  0  0  0  0  0  0  0  0
   21.1550   26.8760   14.6650   C 0  0  0  0  0  0  0  0  0  0  0  0
   22.2620   25.1090   15.9200   C 0  0  0  0  0  0  0  0  0  0  0  0
   20.0850   25.7690   16.4650   O 0  0  0  0  0  0  0  0  0  0  0  0
   18.6480   24.9590   18.0510   N 0  0  0  0  0  0  0  0  0  0  0  0
   18.2210   23.9650   20.1580   C 0  0  0  0  0  0  0  0  0  0  0  0
   19.6670   23.6600   20.3190   C 0  0  0  0  0  0  0  0  0  0  0  0
   20.0810   22.3350   20.1080   C 0  0  0  0  0  0  0  0  0  0  0  0
   21.4260   21.9740   20.2370   C 0  0  0  0  0  0  0  0  0  0  0  0
   22.3860   22.9520   20.5540   C 0  0  0  0  0  0  0  0  0  0  0  0
   21.9610   24.2490   20.7670   C 0  0  0  0  0  0  0  0  0  0  0  0
   20.5990   24.5900   20.6860   C 0  0  0  0  0  0  0  0  0  0  0  0
   15.9180   25.3570   19.1450   O 0  0  0  0  0  0  0  0  0  0  0  0
   15.7050   21.8270   17.9440   N 0  0  0  0  0  0  0  0  0  0  0  0
   14.8150   22.5950   15.7070   C 0  0  0  0  0  0  0  0  0  0  0  0
   13.7480   22.1660   14.7370   C 0  0  0  0  0  0  0  0  0  0  0  0
   16.3550   20.4710   18.6780   S 0  0  0  0  0  0  0  0  0  0  0  0
   17.1170   20.9340   19.8070   O 0  0  0  0  0  0  0  0  0  0  0  0
   16.9950   19.7760   17.6000   O 0  0  0  0  0  0  0  0  0  0  0  0
   15.1370   19.4650   19.2910   C 0  0  0  0  0  0  0  0  0  0  0  0
   14.6370   19.6150   20.6140   C 0  0  0  0  0  0  0  0  0  0  0  0
   13.5550   18.8670   21.0090   C 0  0  0  0  0  0  0  0  0  0  0  0
   14.5490   18.5500   18.4880   C 0  0  0  0  0  0  0  0  0  0  0  0
   13.4480   17.7730   18.9120   C 0  0  0  0  0  0  0  0  0  0  0  0
   12.9670   17.9780   20.1870   C 0  0  0  0  0  0  0  0  0  0  0  0
   11.8140   17.3800   20.6630   O 0  0  0  0  0  0  0  0  0  0  0  0
   11.1610   16.4560   19.7920   C 0  0  0  0  0  0  0  0  0  0  0  0
 21  8  1  0  0  0  0
 21  9  1  0  0  0  0
 35 34  1  0  0  0  0
  2 34  1  0  0  0  0
  8 22  1  0  0  0  0
  8 23  1  0  0  0  0
  9 11  1  0  0  0  0
  9 13  1  0  0  0  0
 34  1  1  0  0  0  0
 22 11  1  0  0  0  0
 11 14  1  0  0  0  0
  7  6  2  0  0  0  0
 23  6  1  0  0  0  0
 13 10  1  0  0  0  0
  1 33  1  0  0  0  0
  6 24  1  0  0  0  0
 14 10  1  0  0  0  0
 14 15  1  0  0  0  0
 38 36  2  0  0  0  0
 10 12  2  0  0  0  0
 33 36  1  0  0  0  0
 33  3  1  0  0  0  0
 24  5  1  0  0  0  0
 16 15  2  0  0  0  0
 16 17  1  0  0  0  0
  4  5  1  0  0  0  0
  4  3  1  0  0  0  0
  4 32  1  0  0  0  0
 42 43  2  0  0  0  0
 42 39  1  0  0  0  0
 15 20  1  0  0  0  0
 36 39  1  0  0  0  0
 36 37  2  0  0  0  0
  5 25  1  0  0  0  0
 43 44  1  0  0  0  0
 39 40  2  0  0  0  0
 17 18  2  0  0  0  0
 20 19  2  0  0  0  0
 46 45  1  0  0  0  0
 27 28  2  0  0  0  0
 27 26  1  0  0  0  0
 25 26  1  0  0  0  0
 44 45  1  0  0  0  0
 44 41  2  0  0  0  0
 28 29  1  0  0  0  0
 26 31  2  0  0  0  0
 18 19  1  0  0  0  0
 29 30  2  0  0  0  0
 40 41  1  0  0  0  0
 31 30  1  0  0  0  0
M  END
>  <InstanceId>
6E7J_HWY_A_201

>  <ChemCompId>
HWY

>  <PdbId>
6E7J

>  <ChainId>
A

>  <ResidueNumber>
201

>  <InsertionCode>


>  <Model>
1

>  <AltIds>


>  <MissingHeavyAtoms>
0

>  <ObservedFormula>
C34 N3 O8 S

>  <Name>
(3aS,5R,6aR)-2-oxo-3-phenylhexahydro-2H-cyclopenta[d][1,3]oxazol-5-yl [(2S,3R)-3-hydroxy-4-{[(4-methoxyphenyl)sulfonyl](2-methylpropyl)amino}-1-phenylbutan-2-yl]carbamate

>  <SystematicName>
[(3~{a}~{S},5~{R},6~{a}~{R})-2-oxidanylidene-3-phenyl-4,5,6,6~{a}-tetrahydro-3~{a}~{H}-cyclopenta[d][1,3]oxazol-5-yl] ~{N}-[(2~{S},3~{R})-4-[(4-methoxyphenyl)sulfonyl-(2-methylpropyl)amino]-3-oxidanyl-1-phenyl-butan-2-yl]carbamate

>  <Synonyms>


>  <Type>
NON-POLYMER

>  <Formula>
C34 H41 N3 O8 S

>  <MolecularWeight>
651.77

>  <ModifiedDate>
2018-11-02

>  <Parent>


>  <OneLetterCode>


>  <SubcomponentList>


>  <AmbiguousFlag>
N

>  <InChI>
InChI=1S/C34H41N3O8S/c1-23(2)21-36(46(41,42)28-16-14-26(43-3)15-17-28)22-31(38)29(18-24-10-6-4-7-11-24)35-33(39)44-27-19-30-32(20-27)45-34(40)37(30)25-12-8-5-9-13-25/h4-17,23,27,29-32,38H,18-22H2,1-3H3,(H,35,39)/t27-,29+,30+,31-,32-/m1/s1

>  <InChIKey>
MCFYAJCOYWLLEO-YGMVDIOKSA-N

>  <SMILES>
CC(C)CN(C[C@H]([C@H](Cc1ccccc1)NC(=O)O[C@@H]2C[C@H]3[C@@H](C2)OC(=O)N3c4ccccc4)O)S(=O)(=O)c5ccc(cc5)OC

$$$$
