4OR6_GDP_A_501
  RCSB PDB08012022463D
Coordinates from PDB:4OR6:A:501 Model:1 without hydrogens
 28 30  0  0  0  0            999 V2000
  -12.3650  -24.5840   -1.8990   P 0  0  0  0  0  0  0  0  0  0  0  0
  -12.5420  -25.9940   -1.3900   O 0  0  0  0  0  0  0  0  0  0  0  0
  -13.5430  -23.7380   -1.4780   O 0  0  0  0  0  0  0  0  0  0  0  0
  -12.2790  -24.5950   -3.4070   O 0  0  0  0  0  0  0  0  0  0  0  0
  -11.0170  -23.9400   -1.3000   O 0  0  0  0  0  0  0  0  0  0  0  0
   -9.5990  -24.7000   -1.3760   P 0  0  0  0  0  0  0  0  0  0  0  0
   -9.7410  -26.1790   -1.1040   O 0  0  0  0  0  0  0  0  0  0  0  0
   -8.6140  -24.0690   -0.4220   O 0  0  0  0  0  0  0  0  0  0  0  0
   -9.1390  -24.4430   -2.8930   O 0  0  0  0  0  0  0  0  0  0  0  0
   -8.7410  -23.1390   -3.2960   C 0  0  0  0  0  0  0  0  0  0  0  0
   -7.6430  -23.2510   -4.3380   C 0  0  0  0  0  0  0  0  0  0  0  0
   -7.7690  -22.1700   -5.2590   O 0  0  0  0  0  0  0  0  0  0  0  0
   -6.2820  -23.1200   -3.6800   C 0  0  0  0  0  0  0  0  0  0  0  0
   -5.4410  -24.1780   -4.1400   O 0  0  0  0  0  0  0  0  0  0  0  0
   -5.7220  -21.7980   -4.1570   C 0  0  0  0  0  0  0  0  0  0  0  0
   -4.3290  -21.9290   -4.4450   O 0  0  0  0  0  0  0  0  0  0  0  0
   -6.5210  -21.4950   -5.4120   C 0  0  0  0  0  0  0  0  0  0  0  0
   -6.7810  -20.0450   -5.5590   N 0  0  0  0  0  0  0  0  0  0  0  0
   -7.0360  -19.1630   -4.5750   C 0  0  0  0  0  0  0  0  0  0  0  0
   -7.2440  -17.9200   -5.0840   N 0  0  0  0  0  0  0  0  0  0  0  0
   -7.1350  -18.0070   -6.4240   C 0  0  0  0  0  0  0  0  0  0  0  0
   -7.2400  -17.0810   -7.5750   C 0  0  0  0  0  0  0  0  0  0  0  0
   -7.4920  -15.8690   -7.4030   O 0  0  0  0  0  0  0  0  0  0  0  0
   -7.0570  -17.5820   -8.8040   N 0  0  0  0  0  0  0  0  0  0  0  0
   -6.7850  -18.8830   -9.0210   C 0  0  0  0  0  0  0  0  0  0  0  0
   -6.6140  -19.3150  -10.2940   N 0  0  0  0  0  0  0  0  0  0  0  0
   -6.6740  -19.7860   -8.0160   N 0  0  0  0  0  0  0  0  0  0  0  0
   -6.8360  -19.4120   -6.7270   C 0  0  0  0  0  0  0  0  0  0  0  0
  1  2  2  0  0  0  0
  1  3  1  0  0  0  0
  1  4  1  0  0  0  0
  1  5  1  0  0  0  0
  5  6  1  0  0  0  0
  6  7  2  0  0  0  0
  6  8  1  0  0  0  0
  6  9  1  0  0  0  0
  9 10  1  0  0  0  0
 10 11  1  0  0  0  0
 11 12  1  0  0  0  0
 11 13  1  0  0  0  0
 12 17  1  0  0  0  0
 13 14  1  0  0  0  0
 13 15  1  0  0  0  0
 15 16  1  0  0  0  0
 15 17  1  0  0  0  0
 17 18  1  0  0  0  0
 18 19  1  0  0  0  0
 18 28  1  0  0  0  0
 19 20  2  0  0  0  0
 20 21  1  0  0  0  0
 21 22  1  0  0  0  0
 21 28  2  0  0  0  0
 22 23  2  0  0  0  0
 22 24  1  0  0  0  0
 24 25  1  0  0  0  0
 25 26  1  0  0  0  0
 25 27  2  0  0  0  0
 27 28  1  0  0  0  0
M  END
>  <InstanceId>
4OR6_GDP_A_501

>  <ChemCompId>
GDP

>  <PdbId>
4OR6

>  <ChainId>
A

>  <ResidueNumber>
501

>  <InsertionCode>


>  <Model>
1

>  <AltIds>


>  <MissingHeavyAtoms>
0

>  <ObservedFormula>
C10 N5 O11 P2

>  <Name>
GUANOSINE-5'-DIPHOSPHATE

>  <SystematicName>
[(2R,3S,4R,5R)-5-(2-azanyl-6-oxidanylidene-1H-purin-9-yl)-3,4-bis(oxidanyl)oxolan-2-yl]methyl phosphono hydrogen phosphate

>  <Synonyms>


>  <Type>
RNA LINKING

>  <Formula>
C10 H15 N5 O11 P2

>  <MolecularWeight>
443.201

>  <ModifiedDate>
2014-05-12

>  <Parent>
G

>  <OneLetterCode>
G

>  <SubcomponentList>


>  <AmbiguousFlag>
N

>  <InChI>
InChI=1S/C10H15N5O11P2/c11-10-13-7-4(8(18)14-10)12-2-15(7)9-6(17)5(16)3(25-9)1-24-28(22,23)26-27(19,20)21/h2-3,5-6,9,16-17H,1H2,(H,22,23)(H2,19,20,21)(H3,11,13,14,18)/t3-,5-,6-,9-/m1/s1

>  <InChIKey>
QGWNDRXFNXRZMB-UUOKFMHZSA-N

>  <SMILES>
c1nc2c(n1[C@H]3[C@@H]([C@@H]([C@H](O3)CO[P@](=O)(O)OP(=O)(O)O)O)O)N=C(NC2=O)N

$$$$
