5U4B_XOS_A_200
  RCSB PDB08022003093D
Coordinates from PDB:5U4B:A:200 Model:1 without hydrogens
 18 19  0  0  0  0            999 V2000
  -20.4970    0.6320  -30.5720   C 0  0  0  0  0  0  0  0  0  0  0  0
  -21.5490   -0.0460  -29.9740   C 0  0  0  0  0  0  0  0  0  0  0  0
  -21.6470   -0.0950  -28.5900   C 0  0  0  0  0  0  0  0  0  0  0  0
  -20.6890    0.5350  -27.8070   C 0  0  0  0  0  0  0  0  0  0  0  0
  -19.6400    1.2100  -28.4100   C 0  0  0  0  0  0  0  0  0  0  0  0
  -19.5410    1.2590  -29.7900   C 0  0  0  0  0  0  0  0  0  0  0  0
  -20.7540    0.5090  -26.2930   C 0  0  0  0  0  0  0  0  0  0  0  0
  -21.6390   -0.1390  -25.5220   C 0  0  0  0  0  0  0  0  0  0  0  0
  -21.6190   -0.1040  -24.0070   C 0  0  0  0  0  0  0  0  0  0  0  0
  -21.4970    1.1100  -23.3490   C 0  0  0  0  0  0  0  0  0  0  0  0
  -21.4670    1.1500  -21.9640   C 0  0  0  0  0  0  0  0  0  0  0  0
  -21.5560   -0.0230  -21.2340   C 0  0  0  0  0  0  0  0  0  0  0  0
  -21.6730   -1.2380  -21.8900   C 0  0  0  0  0  0  0  0  0  0  0  0
  -21.7000   -1.2810  -23.2760   C 0  0  0  0  0  0  0  0  0  0  0  0
  -22.5840   -0.7260  -30.8450   C 0  0  0  0  0  0  0  0  0  0  0  0
  -21.5270    0.0220  -19.8280   O 0  0  0  0  0  0  0  0  0  0  0  0
  -22.3230   -0.9620  -32.0540   O 0  0  0  0  0  0  0  0  0  0  0  0
  -23.7010   -1.0580  -30.3660   O 0  0  0  0  0  0  0  0  0  0  0  0
 16 12  1  0  0  0  0
 13 12  2  0  0  0  0
 13 14  1  0  0  0  0
 12 11  1  0  0  0  0
 11 10  2  0  0  0  0
 14  9  2  0  0  0  0
 10  9  1  0  0  0  0
  9  8  1  0  0  0  0
  8  7  2  0  0  0  0
  7  4  1  0  0  0  0
  4  5  2  0  0  0  0
  4  3  1  0  0  0  0
  5  6  1  0  0  0  0
  3  2  2  0  0  0  0
  6  1  2  0  0  0  0
  2  1  1  0  0  0  0
  2 15  1  0  0  0  0
 17 15  2  0  0  0  0
 15 18  1  0  0  0  0
M  END
>  <InstanceId>
5U4B_XOS_A_200

>  <ChemCompId>
XOS

>  <PdbId>
5U4B

>  <ChainId>
A

>  <ResidueNumber>
200

>  <InsertionCode>


>  <Model>
1

>  <AltIds>


>  <MissingHeavyAtoms>
0

>  <ObservedFormula>
C15 O3

>  <Name>
3-[(E)-2-(4-hydroxyphenyl)ethenyl]benzoic acid

>  <SystematicName>
3-[(~{E})-2-(4-hydroxyphenyl)ethenyl]benzoic acid

>  <Synonyms>


>  <Type>
NON-POLYMER

>  <Formula>
C15 H12 O3

>  <MolecularWeight>
240.254

>  <ModifiedDate>
2017-09-22

>  <Parent>


>  <OneLetterCode>


>  <SubcomponentList>


>  <AmbiguousFlag>
N

>  <InChI>
InChI=1S/C15H12O3/c16-14-8-6-11(7-9-14)4-5-12-2-1-3-13(10-12)15(17)18/h1-10,16H,(H,17,18)/b5-4+

>  <InChIKey>
KNXROYFVTYZPCH-SNAWJCMRSA-N

>  <SMILES>
c1cc(cc(c1)C(=O)O)/C=C/c2ccc(cc2)O

$$$$
