6G0Z_GDP_B_301
  RCSB PDB08022004453D
Coordinates from PDB:6G0Z:B:301 Model:1 without hydrogens
 28 30  0  0  0  0            999 V2000
  -48.6730   36.3970  146.7710   P 0  0  0  0  0  0  0  0  0  0  0  0
  -48.8630   35.2710  145.8140   O 0  0  0  0  0  0  0  0  0  0  0  0
  -49.9540   36.5950  147.6620   O 0  0  0  0  0  0  0  0  0  0  0  0
  -47.5220   35.8810  147.5690   O 0  0  0  0  0  0  0  0  0  0  0  0
  -48.3300   37.7320  145.9780   O 0  0  0  0  0  0  0  0  0  0  0  0
  -48.8730   39.2010  146.2720   P 0  0  0  0  0  0  0  0  0  0  0  0
  -50.3540   39.2750  146.1360   O 0  0  0  0  0  0  0  0  0  0  0  0
  -48.6000   39.5550  147.6930   O 0  0  0  0  0  0  0  0  0  0  0  0
  -48.2130   40.2480  145.2590   O 0  0  0  0  0  0  0  0  0  0  0  0
  -46.8130   40.1430  144.9390   C 0  0  0  0  0  0  0  0  0  0  0  0
  -46.3850   41.3880  144.2200   C 0  0  0  0  0  0  0  0  0  0  0  0
  -46.7640   41.3650  142.7970   O 0  0  0  0  0  0  0  0  0  0  0  0
  -47.0680   42.5640  144.8040   C 0  0  0  0  0  0  0  0  0  0  0  0
  -46.1870   43.6980  144.7540   O 0  0  0  0  0  0  0  0  0  0  0  0
  -48.2100   42.8280  143.9290   C 0  0  0  0  0  0  0  0  0  0  0  0
  -48.5470   44.2240  144.0240   O 0  0  0  0  0  0  0  0  0  0  0  0
  -47.7290   42.4660  142.5760   C 0  0  0  0  0  0  0  0  0  0  0  0
  -48.7610   42.0000  141.7470   N 0  0  0  0  0  0  0  0  0  0  0  0
  -49.5530   41.1590  142.1590   C 0  0  0  0  0  0  0  0  0  0  0  0
  -50.4290   40.8980  141.1250   N 0  0  0  0  0  0  0  0  0  0  0  0
  -49.9770   41.7710  140.0010   C 0  0  0  0  0  0  0  0  0  0  0  0
  -50.3150   42.0830  138.6670   C 0  0  0  0  0  0  0  0  0  0  0  0
  -51.2520   41.5420  138.1040   O 0  0  0  0  0  0  0  0  0  0  0  0
  -49.5610   43.0190  137.9700   N 0  0  0  0  0  0  0  0  0  0  0  0
  -48.4900   43.6360  138.5820   C 0  0  0  0  0  0  0  0  0  0  0  0
  -47.6980   44.5910  137.8620   N 0  0  0  0  0  0  0  0  0  0  0  0
  -48.1870   43.3320  139.8510   N 0  0  0  0  0  0  0  0  0  0  0  0
  -48.8480   42.4490  140.5730   C 0  0  0  0  0  0  0  0  0  0  0  0
  1  2  2  0  0  0  0
  1  3  1  0  0  0  0
  1  4  1  0  0  0  0
  1  5  1  0  0  0  0
  5  6  1  0  0  0  0
  6  7  2  0  0  0  0
  6  8  1  0  0  0  0
  6  9  1  0  0  0  0
  9 10  1  0  0  0  0
 10 11  1  0  0  0  0
 11 12  1  0  0  0  0
 11 13  1  0  0  0  0
 12 17  1  0  0  0  0
 13 14  1  0  0  0  0
 13 15  1  0  0  0  0
 15 16  1  0  0  0  0
 15 17  1  0  0  0  0
 17 18  1  0  0  0  0
 18 19  1  0  0  0  0
 18 28  1  0  0  0  0
 19 20  2  0  0  0  0
 20 21  1  0  0  0  0
 21 22  1  0  0  0  0
 21 28  2  0  0  0  0
 22 23  2  0  0  0  0
 22 24  1  0  0  0  0
 24 25  1  0  0  0  0
 25 26  1  0  0  0  0
 25 27  2  0  0  0  0
 27 28  1  0  0  0  0
M  END
>  <InstanceId>
6G0Z_GDP_B_301

>  <ChemCompId>
GDP

>  <PdbId>
6G0Z

>  <ChainId>
B

>  <ResidueNumber>
301

>  <InsertionCode>


>  <Model>
1

>  <AltIds>


>  <MissingHeavyAtoms>
0

>  <ObservedFormula>
C10 N5 O11 P2

>  <Name>
GUANOSINE-5'-DIPHOSPHATE

>  <SystematicName>
[(2R,3S,4R,5R)-5-(2-azanyl-6-oxidanylidene-1H-purin-9-yl)-3,4-bis(oxidanyl)oxolan-2-yl]methyl phosphono hydrogen phosphate

>  <Synonyms>


>  <Type>
RNA LINKING

>  <Formula>
C10 H15 N5 O11 P2

>  <MolecularWeight>
443.201

>  <ModifiedDate>
2014-05-12

>  <Parent>
G

>  <OneLetterCode>
G

>  <SubcomponentList>


>  <AmbiguousFlag>
N

>  <InChI>
InChI=1S/C10H15N5O11P2/c11-10-13-7-4(8(18)14-10)12-2-15(7)9-6(17)5(16)3(25-9)1-24-28(22,23)26-27(19,20)21/h2-3,5-6,9,16-17H,1H2,(H,22,23)(H2,19,20,21)(H3,11,13,14,18)/t3-,5-,6-,9-/m1/s1

>  <InChIKey>
QGWNDRXFNXRZMB-UUOKFMHZSA-N

>  <SMILES>
c1nc2c(n1[C@H]3[C@@H]([C@@H]([C@H](O3)CO[P@](=O)(O)OP(=O)(O)O)O)O)N=C(NC2=O)N

$$$$
