3F34_DIE_A_2001
  RCSB PDB08012018593D
Coordinates from PDB:3F34:A:2001 Model:1 without hydrogens
 11 11  0  0  0  0            999 V2000
   30.5590    0.2460   34.5090   C 0  0  0  0  0  0  0  0  0  0  0  0
   31.4600   -0.7170   35.2990   C 0  0  0  0  0  0  0  0  0  0  0  0
   32.8650   -0.1710   35.6390   C 0  0  0  0  0  0  0  0  0  0  0  0
   33.0490    0.2930   36.9310   C 0  0  0  0  0  0  0  0  0  0  0  0
   34.2730    0.7960   37.3490   C 0  0  0  0  0  0  0  0  0  0  0  0
   35.3510    0.8320   36.4800   C 0  0  0  0  0  0  0  0  0  0  0  0
   35.2050    0.3620   35.1800   C 0  0  0  0  0  0  0  0  0  0  0  0
   36.4310    0.4260   34.2540   C 0  0  0  0  0  0  0  0  0  0  0  0
   36.0200    0.5430   32.7820   C 0  0  0  0  0  0  0  0  0  0  0  0
   33.9650   -0.1340   34.7750   C 0  0  0  0  0  0  0  0  0  0  0  0
   33.8330   -0.5890   33.4980   O 0  0  0  0  0  0  0  0  0  0  0  0
  1  2  1  0  0  0  0
  2  3  1  0  0  0  0
  3  4  2  0  0  0  0
  3 10  1  0  0  0  0
  4  5  1  0  0  0  0
  5  6  2  0  0  0  0
  6  7  1  0  0  0  0
  7  8  1  0  0  0  0
  7 10  2  0  0  0  0
  8  9  1  0  0  0  0
 10 11  1  0  0  0  0
M  END
>  <InstanceId>
3F34_DIE_A_2001

>  <ChemCompId>
DIE

>  <PdbId>
3F34

>  <ChainId>
A

>  <ResidueNumber>
2001

>  <InsertionCode>


>  <Model>
1

>  <AltIds>


>  <MissingHeavyAtoms>
0

>  <ObservedFormula>
C10 O

>  <Name>
2,6-diethylphenol

>  <SystematicName>
2,6-diethylphenol

>  <Synonyms>


>  <Type>
NON-POLYMER

>  <Formula>
C10 H14 O

>  <MolecularWeight>
150.218

>  <ModifiedDate>
2011-06-04

>  <Parent>


>  <OneLetterCode>


>  <SubcomponentList>


>  <AmbiguousFlag>
N

>  <InChI>
InChI=1S/C10H14O/c1-3-8-6-5-7-9(4-2)10(8)11/h5-7,11H,3-4H2,1-2H3

>  <InChIKey>
METWAQRCMRWDAW-UHFFFAOYSA-N

>  <SMILES>
CCc1cccc(c1O)CC

$$$$
