1EC2_BEJ_B_501
  RCSB PDB08012014493D
Coordinates from PDB:1EC2:B:501 Model:1 without hydrogens
 56 59  0  0  0  0            999 V2000
    9.8350   24.3970    2.0850   C 0  0  0  0  0  0  0  0  0  0  0  0
    9.0400   25.5490    1.8790   C 0  0  0  0  0  0  0  0  0  0  0  0
    7.6350   25.5010    2.1390   C 0  0  0  0  0  0  0  0  0  0  0  0
    7.0070   24.2790    2.6150   C 0  0  0  0  0  0  0  0  0  0  0  0
    7.8510   23.1160    2.8180   C 0  0  0  0  0  0  0  0  0  0  0  0
    9.2480   23.1570    2.5610   C 0  0  0  0  0  0  0  0  0  0  0  0
   16.2970   22.4930    8.5540   C 0  0  0  0  0  0  0  0  0  0  0  0
   15.4530   21.6030    9.3310   C 0  0  0  0  0  0  0  0  0  0  0  0
   16.0100   20.4270    9.9300   C 0  0  0  0  0  0  0  0  0  0  0  0
   17.4170   20.1230    9.7610   C 0  0  0  0  0  0  0  0  0  0  0  0
   18.2510   21.0280    8.9770   C 0  0  0  0  0  0  0  0  0  0  0  0
   17.6990   22.2110    8.3720   C 0  0  0  0  0  0  0  0  0  0  0  0
   15.6680   23.7080    7.9250   C 0  0  0  0  0  0  0  0  0  0  0  0
   14.6010   23.3140    7.0070   O 0  0  0  0  0  0  0  0  0  0  0  0
   15.0840   22.8600    5.7300   C 0  0  0  0  0  0  0  0  0  0  0  0
   14.1220   23.2450    4.6160   C 0  0  0  0  0  0  0  0  0  0  0  0
   13.7150   24.6950    4.6870   C 0  0  0  0  0  0  0  0  0  0  0  0
   12.3440   24.9260    4.0130   C 0  0  0  0  0  0  0  0  0  0  0  0
   11.2200   24.8260    5.0650   C 0  0  0  0  0  0  0  0  0  0  0  0
   10.9830   23.7560    5.6420   O 0  0  0  0  0  0  0  0  0  0  0  0
   10.4910   25.9920    5.3170   N 0  0  0  0  0  0  0  0  0  0  0  0
    9.3480   26.1620    6.2850   C 0  0  0  0  0  0  0  0  0  0  0  0
    9.8180   26.8320    7.6460   C 0  0  0  0  0  0  0  0  0  0  0  0
   10.9390   26.0460    8.3940   C 0  0  0  0  0  0  0  0  0  0  0  0
    8.6680   27.1000    8.6580   C 0  0  0  0  0  0  0  0  0  0  0  0
    8.6030   27.1150    5.5900   C 0  0  0  0  0  0  0  0  0  0  0  0
    8.6960   28.1420    5.0140   O 0  0  0  0  0  0  0  0  0  0  0  0
    6.9870   26.6440    5.5530   N 0  0  0  0  0  0  0  0  0  0  0  0
    5.9540   27.4430    4.8940   C 0  0  0  0  0  0  0  0  0  0  0  0
   12.0750   23.9730    2.9180   O 0  0  0  0  0  0  0  0  0  0  0  0
   11.3040   24.4670    1.8160   C 0  0  0  0  0  0  0  0  0  0  0  0
   14.8340   25.4480    4.2200   O 0  0  0  0  0  0  0  0  0  0  0  0
   14.6510   22.9140    3.3160   O 0  0  0  0  0  0  0  0  0  0  0  0
   15.2240   21.3620    5.6540   C 0  0  0  0  0  0  0  0  0  0  0  0
   14.2940   20.6580    6.0570   O 0  0  0  0  0  0  0  0  0  0  0  0
   16.4240   20.8990    5.1360   N 0  0  0  0  0  0  0  0  0  0  0  0
   16.7750   19.4880    4.9810   C 0  0  0  0  0  0  0  0  0  0  0  0
   16.8160   19.0540    3.4640   C 0  0  0  0  0  0  0  0  0  0  0  0
   17.2550   17.5640    3.2430   C 0  0  0  0  0  0  0  0  0  0  0  0
   15.4900   19.3210    2.7410   C 0  0  0  0  0  0  0  0  0  0  0  0
   18.1920   19.3440    5.5570   C 0  0  0  0  0  0  0  0  0  0  0  0
   19.1180   20.0830    5.1640   O 0  0  0  0  0  0  0  0  0  0  0  0
   18.3310   18.3470    6.5160   N 0  0  0  0  0  0  0  0  0  0  0  0
   19.6240   18.1270    7.1140   C 0  0  0  0  0  0  0  0  0  0  0  0
    5.5060   24.2090    2.8920   C 0  0  0  0  0  0  0  0  0  0  0  0
    4.9050   23.4540    3.9650   C 0  0  0  0  0  0  0  0  0  0  0  0
    3.4730   23.4390    4.1530   C 0  0  0  0  0  0  0  0  0  0  0  0
    2.6850   24.2050    3.2270   C 0  0  0  0  0  0  0  0  0  0  0  0
    3.2170   24.9420    2.1850   N 0  0  0  0  0  0  0  0  0  0  0  0
    4.5770   24.9320    2.0390   C 0  0  0  0  0  0  0  0  0  0  0  0
   18.0040   18.8830   10.3930   C 0  0  0  0  0  0  0  0  0  0  0  0
   17.2650   17.6460   10.5600   C 0  0  0  0  0  0  0  0  0  0  0  0
   17.8750   16.4930   11.1740   C 0  0  0  0  0  0  0  0  0  0  0  0
   19.2290   16.6340   11.6020   C 0  0  0  0  0  0  0  0  0  0  0  0
   19.9660   17.8000   11.4570   N 0  0  0  0  0  0  0  0  0  0  0  0
   19.3620   18.8760   10.8730   C 0  0  0  0  0  0  0  0  0  0  0  0
  1  2  2  0  0  0  0
  1  6  1  0  0  0  0
  1 31  1  0  0  0  0
  2  3  1  0  0  0  0
  3  4  2  0  0  0  0
  4  5  1  0  0  0  0
  4 45  1  0  0  0  0
  5  6  2  0  0  0  0
  7  8  2  0  0  0  0
  7 12  1  0  0  0  0
  7 13  1  0  0  0  0
  8  9  1  0  0  0  0
  9 10  2  0  0  0  0
 10 11  1  0  0  0  0
 10 51  1  0  0  0  0
 11 12  2  0  0  0  0
 13 14  1  0  0  0  0
 14 15  1  0  0  0  0
 15 16  1  0  0  0  0
 15 34  1  0  0  0  0
 16 17  1  0  0  0  0
 16 33  1  0  0  0  0
 17 18  1  0  0  0  0
 17 32  1  0  0  0  0
 18 19  1  0  0  0  0
 18 30  1  0  0  0  0
 19 20  2  0  0  0  0
 19 21  1  0  0  0  0
 21 22  1  0  0  0  0
 22 23  1  0  0  0  0
 22 26  1  0  0  0  0
 23 24  1  0  0  0  0
 23 25  1  0  0  0  0
 26 27  2  0  0  0  0
 26 28  1  0  0  0  0
 28 29  1  0  0  0  0
 30 31  1  0  0  0  0
 34 35  2  0  0  0  0
 34 36  1  0  0  0  0
 36 37  1  0  0  0  0
 37 38  1  0  0  0  0
 37 41  1  0  0  0  0
 38 39  1  0  0  0  0
 38 40  1  0  0  0  0
 41 42  2  0  0  0  0
 41 43  1  0  0  0  0
 43 44  1  0  0  0  0
 45 46  2  0  0  0  0
 45 50  1  0  0  0  0
 46 47  1  0  0  0  0
 47 48  2  0  0  0  0
 48 49  1  0  0  0  0
 49 50  2  0  0  0  0
 51 52  2  0  0  0  0
 51 56  1  0  0  0  0
 52 53  1  0  0  0  0
 53 54  2  0  0  0  0
 54 55  1  0  0  0  0
 55 56  2  0  0  0  0
M  END
>  <InstanceId>
1EC2_BEJ_B_501

>  <ChemCompId>
BEJ

>  <PdbId>
1EC2

>  <ChainId>
B

>  <ResidueNumber>
501

>  <InsertionCode>


>  <Model>
1

>  <AltIds>


>  <MissingHeavyAtoms>
0

>  <ObservedFormula>
C42 N6 O8

>  <Name>
N,N-[2,5-O-[DI-4-PYRIDIN-3-YL-BENZYL]-GLUCARYL]-DI-[VALYL-AMIDO-METHANE]

>  <SystematicName>
(2R,3R,4R,5R)-3,4-dihydroxy-N,N'-bis[(2S)-3-methyl-1-methylamino-1-oxo-butan-2-yl]-2,5-bis[(4-pyridin-3-ylphenyl)methoxy]hexanediamide

>  <Synonyms>
INHIBITOR BEA428

>  <Type>
NON-POLYMER

>  <Formula>
C42 H52 N6 O8

>  <MolecularWeight>
768.898

>  <ModifiedDate>
2020-06-17

>  <Parent>


>  <OneLetterCode>


>  <SubcomponentList>


>  <AmbiguousFlag>
N

>  <InChI>
InChI=1S/C42H52N6O8/c1-25(2)33(39(51)43-5)47-41(53)37(55-23-27-11-15-29(16-12-27)31-9-7-19-45-21-31)35(49)36(50)38(42(54)48-34(26(3)4)40(52)44-6)56-24-28-13-17-30(18-14-28)32-10-8-20-46-22-32/h7-22,25-26,33-38,49-50H,23-24H2,1-6H3,(H,43,51)(H,44,52)(H,47,53)(H,48,54)/t33-,34-,35+,36+,37+,38+/m0/s1

>  <InChIKey>
FOBRXMROTNVGST-CXPJILFNSA-N

>  <SMILES>
CC(C)[C@@H](C(=O)NC)NC(=O)[C@@H]([C@@H]([C@H]([C@H](C(=O)N[C@@H](C(C)C)C(=O)NC)OCc1ccc(cc1)c2cccnc2)O)O)OCc3ccc(cc3)c4cccnc4

$$$$
