3FEE_QUS_A_741
  RCSB PDB08012019003D
Coordinates from PDB:3FEE:A:741 Model:1 without hydrogens
 13 13  0  0  0  0            999 V2000
   19.0100   41.3910   18.4550   C 0  0  0  0  0  0  0  0  0  0  0  0
   18.0320   42.5190   18.6570   C 0  0  0  0  0  0  0  0  0  0  0  0
   16.6110   42.1340   18.1870   C 0  0  0  0  0  0  0  0  0  0  0  0
   15.5740   40.8810   16.3360   C 0  0  0  0  0  0  0  0  0  0  0  0
   16.4560   41.9860   14.7250   C 0  0  0  0  0  0  0  0  0  0  0  0
   18.4810   43.7450   17.9610   N 0  0  0  0  0  0  0  0  0  0  0  0
   16.7370   41.4520   16.8880   N 0  0  0  0  0  0  0  0  0  0  0  0
   15.4830   41.1150   15.0190   N 0  0  0  0  0  0  0  0  0  0  0  0
   19.8700   41.5150   17.5730   O 0  0  0  0  0  0  0  0  0  0  0  0
   18.8550   40.3790   19.1870   O 0  0  0  0  0  0  0  0  0  0  0  0
   14.8000   40.2420   17.0130   O 0  0  0  0  0  0  0  0  0  0  0  0
   16.7640   42.5010   13.6590   O 0  0  0  0  0  0  0  0  0  0  0  0
   17.2480   42.3420   15.8700   O 0  0  0  0  0  0  0  0  0  0  0  0
  1  2  1  0  0  0  0
  1  9  2  0  0  0  0
  1 10  1  0  0  0  0
  2  3  1  0  0  0  0
  2  6  1  0  0  0  0
  3  7  1  0  0  0  0
  4  7  1  0  0  0  0
  4  8  1  0  0  0  0
  4 11  2  0  0  0  0
  5  8  1  0  0  0  0
  5 12  2  0  0  0  0
  5 13  1  0  0  0  0
  7 13  1  0  0  0  0
M  END
>  <InstanceId>
3FEE_QUS_A_741

>  <ChemCompId>
QUS

>  <PdbId>
3FEE

>  <ChainId>
A

>  <ResidueNumber>
741

>  <InsertionCode>


>  <Model>
1

>  <AltIds>


>  <MissingHeavyAtoms>
0

>  <ObservedFormula>
C5 N3 O5

>  <Name>
(S)-2-AMINO-3-(3,5-DIOXO-[1,2,4]OXADIAZOLIDIN-2-YL)-PROPIONIC ACID

>  <SystematicName>
(2S)-2-amino-3-(3,5-dioxo-1,2,4-oxadiazolidin-2-yl)propanoic acid

>  <Synonyms>
QUISQUALATE

>  <Type>
NON-POLYMER

>  <Formula>
C5 H7 N3 O5

>  <MolecularWeight>
189.126

>  <ModifiedDate>
2020-06-17

>  <Parent>


>  <OneLetterCode>


>  <SubcomponentList>


>  <AmbiguousFlag>
N

>  <InChI>
InChI=1S/C5H7N3O5/c6-2(3(9)10)1-8-4(11)7-5(12)13-8/h2H,1,6H2,(H,9,10)(H,7,11,12)/t2-/m0/s1

>  <InChIKey>
ASNFTDCKZKHJSW-REOHCLBHSA-N

>  <SMILES>
C([C@@H](C(=O)O)N)N1C(=O)NC(=O)O1

$$$$
