1X8J_AOI_A_400
  RCSB PDB08012016213D
Coordinates from PDB:1X8J:A:400 Model:1 without hydrogens
 21 24  0  0  0  0            999 V2000
   22.9800   -7.5390   41.0900   C 0  0  0  0  0  0  0  0  0  0  0  0
   24.3850   -8.1060   40.7770   C 0  0  0  0  0  0  0  0  0  0  0  0
   25.0090   -8.7760   42.0230   C 0  0  0  0  0  0  0  0  0  0  0  0
   25.3520   -7.7130   42.9430   O 0  0  0  0  0  0  0  0  0  0  0  0
   24.0890   -9.7800   42.6710   C 0  0  0  0  0  0  0  0  0  0  0  0
   22.6790   -9.2060   42.9830   C 0  0  0  0  0  0  0  0  0  0  0  0
   21.7460  -10.2660   43.6460   C 0  0  0  0  0  0  0  0  0  0  0  0
   20.3830   -9.6810   43.9470   C 0  0  0  0  0  0  0  0  0  0  0  0
   19.6740   -9.0990   42.6990   C 0  0  0  0  0  0  0  0  0  0  0  0
   20.5900   -8.0130   42.0410   C 0  0  0  0  0  0  0  0  0  0  0  0
   22.0060   -8.6220   41.6670   C 0  0  0  0  0  0  0  0  0  0  0  0
   19.8580   -7.4110   40.7930   C 0  0  0  0  0  0  0  0  0  0  0  0
   18.4480   -6.8110   41.1350   C 0  0  0  0  0  0  0  0  0  0  0  0
   17.5610   -7.8710   41.8020   C 0  0  0  0  0  0  0  0  0  0  0  0
   18.3140   -8.4700   43.0420   C 0  0  0  0  0  0  0  0  0  0  0  0
   17.1990   -9.3050   43.7140   C 0  0  0  0  0  0  0  0  0  0  0  0
   16.0410   -8.3040   43.7020   C 0  0  0  0  0  0  0  0  0  0  0  0
   16.2940   -7.3780   42.5030   C 0  0  0  0  0  0  0  0  0  0  0  0
   15.6040   -6.4500   42.2020   O 0  0  0  0  0  0  0  0  0  0  0  0
   17.0970   -8.9470   40.7530   C 0  0  0  0  0  0  0  0  0  0  0  0
   21.8310   -9.7350   40.5690   C 0  0  0  0  0  0  0  0  0  0  0  0
 21 11  1  0  0  0  0
 20 14  1  0  0  0  0
  2  1  1  0  0  0  0
  2  3  1  0  0  0  0
 12 13  1  0  0  0  0
 12 10  1  0  0  0  0
  1 11  1  0  0  0  0
 13 14  1  0  0  0  0
 11 10  1  0  0  0  0
 11  6  1  0  0  0  0
 14 18  1  0  0  0  0
 14 15  1  0  0  0  0
  3  5  1  0  0  0  0
  3  4  1  0  0  0  0
 10  9  1  0  0  0  0
 19 18  2  0  0  0  0
 18 17  1  0  0  0  0
  5  6  1  0  0  0  0
  9 15  1  0  0  0  0
  9  8  1  0  0  0  0
  6  7  1  0  0  0  0
 15 16  1  0  0  0  0
  7  8  1  0  0  0  0
 17 16  1  0  0  0  0
M  END
>  <InstanceId>
1X8J_AOI_A_400

>  <ChemCompId>
AOI

>  <PdbId>
1X8J

>  <ChainId>
A

>  <ResidueNumber>
400

>  <InsertionCode>


>  <Model>
1

>  <AltIds>


>  <MissingHeavyAtoms>
0

>  <ObservedFormula>
C19 O2

>  <Name>
Androsterone

>  <SystematicName>
(3R,5S,8R,9S,10S,13S,14S)-10,13-dimethyl-3-oxidanyl-1,2,3,4,5,6,7,8,9,11,12,14,15,16-tetradecahydrocyclopenta[a]phenanthren-17-one

>  <Synonyms>
(3alpha,5beta,8alpha,10alpha,13alpha,14beta)-3-hydroxyandrostan-17-one

>  <Type>
NON-POLYMER

>  <Formula>
C19 H30 O2

>  <MolecularWeight>
290.44

>  <ModifiedDate>
2013-06-28

>  <Parent>


>  <OneLetterCode>


>  <SubcomponentList>


>  <AmbiguousFlag>
N

>  <InChI>
InChI=1S/C19H30O2/c1-18-9-7-13(20)11-12(18)3-4-14-15-5-6-17(21)19(15,2)10-8-16(14)18/h12-16,20H,3-11H2,1-2H3/t12-,13+,14-,15-,16-,18-,19-/m0/s1

>  <InChIKey>
QGXBDMJGAMFCBF-HLUDHZFRSA-N

>  <SMILES>
C[C@]12CC[C@H](C[C@@H]1CC[C@@H]3[C@@H]2CC[C@]4([C@H]3CCC4=O)C)O

$$$$
