1YQJ_6NP_A_362
  RCSB PDB08012016283D
Coordinates from PDB:1YQJ:A:362 Model:1 without hydrogens
 35 40  0  0  0  0            999 V2000
   23.6430   14.9290   32.1010   C 0  0  0  0  0  0  0  0  0  0  0  0
   22.4710   15.6330   32.1960   N 0  0  0  0  0  0  0  0  0  0  0  0
   21.3140   14.9480   32.2960   N 0  0  0  0  0  0  0  0  0  0  0  0
   21.1820   13.5710   32.3150   C 0  0  0  0  0  0  0  0  0  0  0  0
   22.4790   12.7690   32.2120   C 0  0  0  0  0  0  0  0  0  0  0  0
   22.5310   11.2510   32.2180   C 0  0  0  0  0  0  0  0  0  0  0  0
   23.2230   10.5610   33.2370   C 0  0  0  0  0  0  0  0  0  0  0  0
   23.2490    9.1520   33.2260   C 0  0  0  0  0  0  0  0  0  0  0  0
   22.6270    8.4090   32.2650   N 0  0  0  0  0  0  0  0  0  0  0  0
   21.9560    9.0690   31.2750   C 0  0  0  0  0  0  0  0  0  0  0  0
   21.8880   10.4730   31.2180   C 0  0  0  0  0  0  0  0  0  0  0  0
   23.6570   13.5070   32.1080   C 0  0  0  0  0  0  0  0  0  0  0  0
   27.8700   13.9630   30.4080   C 0  0  0  0  0  0  0  0  0  0  0  0
   26.8240   11.7310   29.7290   C 0  0  0  0  0  0  0  0  0  0  0  0
   26.5550   10.3600   29.9570   C 0  0  0  0  0  0  0  0  0  0  0  0
   27.0480    9.7340   31.1220   C 0  0  0  0  0  0  0  0  0  0  0  0
   27.8140   10.4800   32.0570   C 0  0  0  0  0  0  0  0  0  0  0  0
   28.0830   11.8510   31.8270   C 0  0  0  0  0  0  0  0  0  0  0  0
   27.5910   12.4930   30.6620   C 0  0  0  0  0  0  0  0  0  0  0  0
   19.8100   12.9610   32.4270   C 0  0  0  0  0  0  0  0  0  0  0  0
   18.8840   13.1410   31.3700   C 0  0  0  0  0  0  0  0  0  0  0  0
   17.5850   12.5410   31.4540   C 0  0  0  0  0  0  0  0  0  0  0  0
   17.2100   11.7480   32.6140   C 0  0  0  0  0  0  0  0  0  0  0  0
   18.1480   11.5830   33.6660   C 0  0  0  0  0  0  0  0  0  0  0  0
   19.4290   12.1850   33.5640   C 0  0  0  0  0  0  0  0  0  0  0  0
   16.6480   12.7130   30.3860   C 0  0  0  0  0  0  0  0  0  0  0  0
   15.3620   12.1020   30.4710   C 0  0  0  0  0  0  0  0  0  0  0  0
   15.0030   11.3250   31.6110   C 0  0  0  0  0  0  0  0  0  0  0  0
   15.9170   11.1430   32.6880   C 0  0  0  0  0  0  0  0  0  0  0  0
   26.6020   14.8180   30.5590   C 0  0  0  0  0  0  0  0  0  0  0  0
   26.1720   15.0500   32.0230   C 0  0  0  0  0  0  0  0  0  0  0  0
   24.8320   15.6810   31.9890   N 0  0  0  0  0  0  0  0  0  0  0  0
   24.7960   17.0030   31.3040   C 0  0  0  0  0  0  0  0  0  0  0  0
   25.4250   16.8890   29.8890   C 0  0  0  0  0  0  0  0  0  0  0  0
   26.7050   16.1300   29.8820   N 0  0  0  0  0  0  0  0  0  0  0  0
  1  2  1  0  0  0  0
  1 12  2  0  0  0  0
  1 32  1  0  0  0  0
  2  3  2  0  0  0  0
  3  4  1  0  0  0  0
  4  5  2  0  0  0  0
  4 20  1  0  0  0  0
  5  6  1  0  0  0  0
  5 12  1  0  0  0  0
  6  7  2  0  0  0  0
  6 11  1  0  0  0  0
  7  8  1  0  0  0  0
  8  9  2  0  0  0  0
  9 10  1  0  0  0  0
 10 11  2  0  0  0  0
 13 19  1  0  0  0  0
 13 30  1  0  0  0  0
 14 15  2  0  0  0  0
 14 19  1  0  0  0  0
 15 16  1  0  0  0  0
 16 17  2  0  0  0  0
 17 18  1  0  0  0  0
 18 19  2  0  0  0  0
 20 21  2  0  0  0  0
 20 25  1  0  0  0  0
 21 22  1  0  0  0  0
 22 23  2  0  0  0  0
 22 26  1  0  0  0  0
 23 24  1  0  0  0  0
 23 29  1  0  0  0  0
 24 25  2  0  0  0  0
 26 27  2  0  0  0  0
 27 28  1  0  0  0  0
 28 29  2  0  0  0  0
 30 31  1  0  0  0  0
 30 35  1  0  0  0  0
 31 32  1  0  0  0  0
 32 33  1  0  0  0  0
 33 34  1  0  0  0  0
 34 35  1  0  0  0  0
M  END
>  <InstanceId>
1YQJ_6NP_A_362

>  <ChemCompId>
6NP

>  <PdbId>
1YQJ

>  <ChainId>
A

>  <ResidueNumber>
362

>  <InsertionCode>


>  <Model>
1

>  <AltIds>


>  <MissingHeavyAtoms>
0

>  <ObservedFormula>
C30 N5

>  <Name>
6((S)-3-BENZYLPIPERAZIN-1-YL)-3-(NAPHTHALEN-2-YL)-4-(PYRIDIN-4-YL)PYRAZINE

>  <SystematicName>
3-naphthalen-2-yl-6-[(1R,3S)-3-(phenylmethyl)piperazin-1-yl]-4-pyridin-4-yl-pyridazine

>  <Synonyms>


>  <Type>
NON-POLYMER

>  <Formula>
C30 H27 N5

>  <MolecularWeight>
457.569

>  <ModifiedDate>
2011-06-04

>  <Parent>


>  <OneLetterCode>


>  <SubcomponentList>


>  <AmbiguousFlag>
N

>  <InChI>
InChI=1S/C30H27N5/c1-2-6-22(7-3-1)18-27-21-35(17-16-32-27)29-20-28(24-12-14-31-15-13-24)30(34-33-29)26-11-10-23-8-4-5-9-25(23)19-26/h1-15,19-20,27,32H,16-18,21H2/t27-/m0/s1

>  <InChIKey>
WFSFNKVFXLIZIY-MHZLTWQESA-N

>  <SMILES>
c1ccc(cc1)C[C@H]2C[N@@](CCN2)c3cc(c(nn3)c4ccc5ccccc5c4)c6ccncc6

$$$$
