1SZD_APR_A_1001
  RCSB PDB08012015583D
Coordinates from PDB:1SZD:A:1001 Model:1 without hydrogens
 36 39  0  0  0  0            999 V2000
  -13.1970   32.4900  -34.3580   N 0  0  0  0  0  0  0  0  0  0  0  0
  -12.1780   31.5510  -34.6210   C 0  0  0  0  0  0  0  0  0  0  0  0
  -11.8390   31.0940  -35.9550   N 0  0  0  0  0  0  0  0  0  0  0  0
  -12.6420   31.6880  -36.9760   C 0  0  0  0  0  0  0  0  0  0  0  0
  -13.6850   32.6270  -36.8310   C 0  0  0  0  0  0  0  0  0  0  0  0
  -13.9700   33.0450  -35.4480   C 0  0  0  0  0  0  0  0  0  0  0  0
  -14.9910   33.9960  -35.1210   N 0  0  0  0  0  0  0  0  0  0  0  0
  -14.2160   32.9540  -38.0560   N 0  0  0  0  0  0  0  0  0  0  0  0
  -13.5180   32.2390  -38.9410   C 0  0  0  0  0  0  0  0  0  0  0  0
  -12.5480   31.4570  -38.3260   N 0  0  0  0  0  0  0  0  0  0  0  0
  -11.5530   30.5400  -38.8690   C 0  0  0  0  0  0  0  0  0  0  0  0
  -11.8920   29.7570  -40.0570   C 0  0  0  0  0  0  0  0  0  0  0  0
  -12.2890   28.4150  -39.7130   O 0  0  0  0  0  0  0  0  0  0  0  0
  -10.7140   29.7710  -40.9290   C 0  0  0  0  0  0  0  0  0  0  0  0
   -9.8220   28.6440  -40.7920   O 0  0  0  0  0  0  0  0  0  0  0  0
  -10.5540   31.4300  -39.2840   O 0  0  0  0  0  0  0  0  0  0  0  0
   -9.9790   31.0440  -40.5380   C 0  0  0  0  0  0  0  0  0  0  0  0
  -10.0860   32.2430  -41.5020   C 0  0  0  0  0  0  0  0  0  0  0  0
   -9.5480   31.8810  -42.7890   O 0  0  0  0  0  0  0  0  0  0  0  0
   -9.4880   32.8610  -43.9620   P 0  0  0  0  0  0  0  0  0  0  0  0
  -10.7950   33.4870  -44.1880   O 0  0  0  0  0  0  0  0  0  0  0  0
   -8.9410   32.1710  -45.1380   O 0  0  0  0  0  0  0  0  0  0  0  0
   -8.4410   33.9480  -43.7350   O 0  0  0  0  0  0  0  0  0  0  0  0
   -7.0180   34.1300  -43.4470   P 0  0  0  0  0  0  0  0  0  0  0  0
   -6.3480   32.8550  -43.2620   O 0  0  0  0  0  0  0  0  0  0  0  0
   -6.5540   34.8920  -42.3940   O 0  0  0  0  0  0  0  0  0  0  0  0
   -6.7540   34.4970  -44.8790   O 0  0  0  0  0  0  0  0  0  0  0  0
   -6.9450   35.5660  -45.6440   C 0  0  0  0  0  0  0  0  0  0  0  0
   -7.9050   36.6760  -47.1900   O 0  0  0  0  0  0  0  0  0  0  0  0
   -6.5320   38.4170  -47.7010   O 0  0  0  0  0  0  0  0  0  0  0  0
   -7.2320   37.3180  -48.2500   C 0  0  0  0  0  0  0  0  0  0  0  0
   -6.9930   36.0840  -49.8250   O 0  0  0  0  0  0  0  0  0  0  0  0
   -6.1870   36.5590  -48.7430   C 0  0  0  0  0  0  0  0  0  0  0  0
   -6.3030   34.0130  -48.8210   O 0  0  0  0  0  0  0  0  0  0  0  0
   -6.1700   35.2420  -48.1280   C 0  0  0  0  0  0  0  0  0  0  0  0
   -7.1590   35.3780  -47.0310   C 0  0  0  0  0  0  0  0  0  0  0  0
  1  2  1  0  0  0  0
  1  6  2  0  0  0  0
  2  3  2  0  0  0  0
  3  4  1  0  0  0  0
  4  5  2  0  0  0  0
  4 10  1  0  0  0  0
  5  6  1  0  0  0  0
  5  8  1  0  0  0  0
  6  7  1  0  0  0  0
  8  9  2  0  0  0  0
  9 10  1  0  0  0  0
 10 11  1  0  0  0  0
 11 12  1  0  0  0  0
 11 16  1  0  0  0  0
 12 13  1  0  0  0  0
 12 14  1  0  0  0  0
 14 15  1  0  0  0  0
 14 17  1  0  0  0  0
 16 17  1  0  0  0  0
 17 18  1  0  0  0  0
 18 19  1  0  0  0  0
 19 20  1  0  0  0  0
 20 21  2  0  0  0  0
 20 22  1  0  0  0  0
 20 23  1  0  0  0  0
 23 24  1  0  0  0  0
 24 25  2  0  0  0  0
 24 26  1  0  0  0  0
 24 27  1  0  0  0  0
 27 28  1  0  0  0  0
 28 36  1  0  0  0  0
 29 31  1  0  0  0  0
 29 36  1  0  0  0  0
 30 31  1  0  0  0  0
 31 33  1  0  0  0  0
 32 33  1  0  0  0  0
 33 35  1  0  0  0  0
 34 35  1  0  0  0  0
 35 36  1  0  0  0  0
M  END
>  <InstanceId>
1SZD_APR_A_1001

>  <ChemCompId>
APR

>  <PdbId>
1SZD

>  <ChainId>
A

>  <ResidueNumber>
1001

>  <InsertionCode>


>  <Model>
1

>  <AltIds>


>  <MissingHeavyAtoms>
0

>  <ObservedFormula>
C15 N5 O14 P2

>  <Name>
ADENOSINE-5-DIPHOSPHORIBOSE

>  <SystematicName>
[(2R,3S,4R,5R)-5-(6-aminopurin-9-yl)-3,4-dihydroxy-oxolan-2-yl]methyl [hydroxy-[[(2R,3S,4R,5R)-3,4,5-trihydroxyoxolan-2-yl]methoxy]phosphoryl] hydrogen phosphate

>  <Synonyms>


>  <Type>
NON-POLYMER

>  <Formula>
C15 H23 N5 O14 P2

>  <MolecularWeight>
559.316

>  <ModifiedDate>
2011-06-04

>  <Parent>


>  <OneLetterCode>


>  <SubcomponentList>


>  <AmbiguousFlag>
N

>  <InChI>
InChI=1S/C15H23N5O14P2/c16-12-7-13(18-3-17-12)20(4-19-7)14-10(23)8(21)5(32-14)1-30-35(26,27)34-36(28,29)31-2-6-9(22)11(24)15(25)33-6/h3-6,8-11,14-15,21-25H,1-2H2,(H,26,27)(H,28,29)(H2,16,17,18)/t5-,6-,8-,9-,10-,11-,14-,15-/m1/s1

>  <InChIKey>
SRNWOUGRCWSEMX-KEOHHSTQSA-N

>  <SMILES>
c1nc(c2c(n1)n(cn2)[C@H]3[C@@H]([C@@H]([C@H](O3)CO[P@](=O)(O)O[P@](=O)(O)OC[C@@H]4[C@H]([C@H]([C@@H](O4)O)O)O)O)O)N

$$$$
