3EKT_017_B_200
  RCSB PDB08012018563D
Coordinates from PDB:3EKT:B:200 Model:1 without hydrogens
 38 41  0  0  0  0            999 V2000
   22.6540   48.8330  -11.0660   N 0  0  0  0  0  0  0  0  0  0  0  0
   22.3510   47.5880  -10.6590   C 0  0  0  0  0  0  0  0  0  0  0  0
   22.9330   47.1040   -9.4990   C 0  0  0  0  0  0  0  0  0  0  0  0
   22.6210   45.8270   -9.0890   C 0  0  0  0  0  0  0  0  0  0  0  0
   21.7140   45.0900   -9.8320   C 0  0  0  0  0  0  0  0  0  0  0  0
   21.1990   45.6770  -10.9790   C 0  0  0  0  0  0  0  0  0  0  0  0
   21.5180   46.8790  -11.3360   C 0  0  0  0  0  0  0  0  0  0  0  0
   21.2920   43.5830   -9.4290   S 0  0  0  0  0  0  0  0  0  0  0  0
   22.3600   42.8080   -8.8610   O 0  0  0  0  0  0  0  0  0  0  0  0
   20.8370   42.8890  -10.6090   O 0  0  0  0  0  0  0  0  0  0  0  0
   20.0570   43.5680   -8.3690   N 0  0  0  0  0  0  0  0  0  0  0  0
   20.2980   44.5140   -7.2800   C 0  0  0  0  0  0  0  0  0  0  0  0
   19.7790   43.9830   -5.9540   C 0  0  0  0  0  0  0  0  0  0  0  0
   20.2570   42.5660   -5.6930   C 0  0  0  0  0  0  0  0  0  0  0  0
   20.2370   44.9210   -4.8480   C 0  0  0  0  0  0  0  0  0  0  0  0
   18.7980   43.8890   -9.0340   C 0  0  0  0  0  0  0  0  0  0  0  0
   17.8270   42.7420   -8.7950   C 0  0  0  0  0  0  0  0  0  0  0  0
   16.5220   43.2360   -9.0850   O 0  0  0  0  0  0  0  0  0  0  0  0
   18.2170   41.5130   -9.6360   C 0  0  0  0  0  0  0  0  0  0  0  0
   17.4270   40.3960   -9.1660   N 0  0  0  0  0  0  0  0  0  0  0  0
   17.9650   39.3670   -8.4870   C 0  0  0  0  0  0  0  0  0  0  0  0
   19.1390   39.2940   -8.1710   O 0  0  0  0  0  0  0  0  0  0  0  0
   16.9840   38.3730   -8.0600   O 0  0  0  0  0  0  0  0  0  0  0  0
   17.2970   37.0180   -7.7810   C 0  0  0  0  0  0  0  0  0  0  0  0
   16.3440   36.6290   -6.6590   C 0  0  0  0  0  0  0  0  0  0  0  0
   15.1600   36.1190   -7.2910   O 0  0  0  0  0  0  0  0  0  0  0  0
   15.4650   35.7090   -8.6430   C 0  0  0  0  0  0  0  0  0  0  0  0
   14.6330   36.3590   -9.6290   O 0  0  0  0  0  0  0  0  0  0  0  0
   15.4230   37.0610  -10.5960   C 0  0  0  0  0  0  0  0  0  0  0  0
   16.8890   36.7350  -10.3120   C 0  0  0  0  0  0  0  0  0  0  0  0
   16.9030   36.1060   -8.9250   C 0  0  0  0  0  0  0  0  0  0  0  0
   17.9020   41.6420  -11.1230   C 0  0  0  0  0  0  0  0  0  0  0  0
   17.3240   39.6430  -12.5130   C 0  0  0  0  0  0  0  0  0  0  0  0
   17.6740   38.4590  -13.1580   C 0  0  0  0  0  0  0  0  0  0  0  0
   18.9940   38.0140  -13.1590   C 0  0  0  0  0  0  0  0  0  0  0  0
   19.9620   38.7430  -12.4730   C 0  0  0  0  0  0  0  0  0  0  0  0
   19.6090   39.9240  -11.8160   C 0  0  0  0  0  0  0  0  0  0  0  0
   18.2900   40.3700  -11.8310   C 0  0  0  0  0  0  0  0  0  0  0  0
  1  2  1  0  0  0  0
  2  3  2  0  0  0  0
  2  7  1  0  0  0  0
  3  4  1  0  0  0  0
  4  5  2  0  0  0  0
  5  6  1  0  0  0  0
  5  8  1  0  0  0  0
  6  7  2  0  0  0  0
  8  9  2  0  0  0  0
  8 10  2  0  0  0  0
  8 11  1  0  0  0  0
 11 12  1  0  0  0  0
 11 16  1  0  0  0  0
 12 13  1  0  0  0  0
 13 14  1  0  0  0  0
 13 15  1  0  0  0  0
 16 17  1  0  0  0  0
 17 18  1  0  0  0  0
 17 19  1  0  0  0  0
 19 20  1  0  0  0  0
 19 32  1  0  0  0  0
 20 21  1  0  0  0  0
 21 22  2  0  0  0  0
 21 23  1  0  0  0  0
 23 24  1  0  0  0  0
 24 25  1  0  0  0  0
 24 31  1  0  0  0  0
 25 26  1  0  0  0  0
 26 27  1  0  0  0  0
 27 28  1  0  0  0  0
 27 31  1  0  0  0  0
 28 29  1  0  0  0  0
 29 30  1  0  0  0  0
 30 31  1  0  0  0  0
 32 38  1  0  0  0  0
 33 34  2  0  0  0  0
 33 38  1  0  0  0  0
 34 35  1  0  0  0  0
 35 36  2  0  0  0  0
 36 37  1  0  0  0  0
 37 38  2  0  0  0  0
M  END
>  <InstanceId>
3EKT_017_B_200

>  <ChemCompId>
017

>  <PdbId>
3EKT

>  <ChainId>
B

>  <ResidueNumber>
200

>  <InsertionCode>


>  <Model>
1

>  <AltIds>


>  <MissingHeavyAtoms>
0

>  <ObservedFormula>
C27 N3 O7 S

>  <Name>
(3R,3AS,6AR)-HEXAHYDROFURO[2,3-B]FURAN-3-YL(1S,2R)-3-[[(4-AMINOPHENYL)SULFONYL](ISOBUTYL)AMINO]-1-BENZYL-2-HYDROXYPROPYLCARBAMATE

>  <SystematicName>
[(3R,3aS,6aR)-2,3,3a,4,5,6a-hexahydrofuro[2,3-b]furan-3-yl] N-[(2S,3R)-4-[(4-aminophenyl)sulfonyl-(2-methylpropyl)amino]-3-hydroxy-1-phenyl-butan-2-yl]carbamate

>  <Synonyms>
Darunavir; TMC114; UIC-94017

>  <Type>
NON-POLYMER

>  <Formula>
C27 H37 N3 O7 S

>  <MolecularWeight>
547.664

>  <ModifiedDate>
2020-05-22

>  <Parent>


>  <OneLetterCode>


>  <SubcomponentList>


>  <AmbiguousFlag>
N

>  <InChI>
InChI=1S/C27H37N3O7S/c1-18(2)15-30(38(33,34)21-10-8-20(28)9-11-21)16-24(31)23(14-19-6-4-3-5-7-19)29-27(32)37-25-17-36-26-22(25)12-13-35-26/h3-11,18,22-26,31H,12-17,28H2,1-2H3,(H,29,32)/t22-,23-,24+,25-,26+/m0/s1

>  <InChIKey>
CJBJHOAVZSMMDJ-HEXNFIEUSA-N

>  <SMILES>
CC(C)C[N@@](C[C@H]([C@H](Cc1ccccc1)NC(=O)O[C@H]2CO[C@@H]3[C@H]2CCO3)O)S(=O)(=O)c4ccc(cc4)N

$$$$
