5YL2_8WU_B_504
  RCSB PDB08022003453D
Coordinates from PDB:5YL2:B:504 Model:1 without hydrogens
 27 29  0  0  0  0            999 V2000
   16.8830  220.5290   47.7130   C 0  0  0  0  0  0  0  0  0  0  0  0
   17.1910  221.9300   47.7170   O 0  0  0  0  0  0  0  0  0  0  0  0
   17.4580  222.5370   46.5190   C 0  0  0  0  0  0  0  0  0  0  0  0
   17.3090  221.8820   45.3290   C 0  0  0  0  0  0  0  0  0  0  0  0
   17.5900  222.5590   44.0950   C 0  0  0  0  0  0  0  0  0  0  0  0
   18.0220  223.8830   44.1160   C 0  0  0  0  0  0  0  0  0  0  0  0
   18.3020  224.5620   42.7620   C 0  0  0  0  0  0  0  0  0  0  0  0
   18.9130  225.7960   42.5940   C 0  0  0  0  0  0  0  0  0  0  0  0
   19.0860  226.3610   41.1870   C 0  0  0  0  0  0  0  0  0  0  0  0
   19.9470  227.1650   40.9530   O 0  0  0  0  0  0  0  0  0  0  0  0
   18.1560  225.8970   40.0290   C 0  0  0  0  0  0  0  0  0  0  0  0
   18.7250  225.6560   38.7910   C 0  0  0  0  0  0  0  0  0  0  0  0
   17.9070  225.2270   37.6860   C 0  0  0  0  0  0  0  0  0  0  0  0
   16.5200  225.0430   37.8780   C 0  0  0  0  0  0  0  0  0  0  0  0
   15.7270  224.6120   36.7920   O 0  0  0  0  0  0  0  0  0  0  0  0
   16.0150  223.3010   36.4410   C 0  0  0  0  0  0  0  0  0  0  0  0
   15.9130  225.2940   39.1720   C 0  0  0  0  0  0  0  0  0  0  0  0
   14.4780  225.1180   39.3810   C 0  0  0  0  0  0  0  0  0  0  0  0
   13.8540  225.7150   40.5250   C 0  0  0  0  0  0  0  0  0  0  0  0
   14.7230  226.5380   41.4910   C 0  0  0  0  0  0  0  0  0  0  0  0
   14.7760  228.0690   41.1590   C 0  0  0  0  0  0  0  0  0  0  0  0
   14.1480  226.6140   42.8840   C 0  0  0  0  0  0  0  0  0  0  0  0
   16.1040  225.9840   41.5470   O 0  0  0  0  0  0  0  0  0  0  0  0
   16.7040  225.7160   40.2140   C 0  0  0  0  0  0  0  0  0  0  0  0
   18.1610  224.5610   45.3230   C 0  0  0  0  0  0  0  0  0  0  0  0
   17.8900  223.8990   46.5290   C 0  0  0  0  0  0  0  0  0  0  0  0
   18.0380  224.5790   47.7300   O 0  0  0  0  0  0  0  0  0  0  0  0
 16 15  1  0  0  0  0
 15 14  1  0  0  0  0
 13 14  1  0  0  0  0
 13 12  2  0  0  0  0
 14 17  2  0  0  0  0
 12 11  1  0  0  0  0
 17 18  1  0  0  0  0
 17 24  1  0  0  0  0
 18 19  2  0  0  0  0
 11 24  2  0  0  0  0
 11  9  1  0  0  0  0
 24 23  1  0  0  0  0
 19 20  1  0  0  0  0
 10  9  2  0  0  0  0
 21 20  1  0  0  0  0
  9  8  1  0  0  0  0
 20 23  1  0  0  0  0
 20 22  1  0  0  0  0
  8  7  2  0  0  0  0
  7  6  1  0  0  0  0
  5  6  2  0  0  0  0
  5  4  1  0  0  0  0
  6 25  1  0  0  0  0
 25 26  2  0  0  0  0
  4  3  2  0  0  0  0
  3 26  1  0  0  0  0
  3  2  1  0  0  0  0
 26 27  1  0  0  0  0
  1  2  1  0  0  0  0
M  END
>  <InstanceId>
5YL2_8WU_B_504

>  <ChemCompId>
8WU

>  <PdbId>
5YL2

>  <ChainId>
B

>  <ResidueNumber>
504

>  <InsertionCode>


>  <Model>
1

>  <AltIds>


>  <MissingHeavyAtoms>
0

>  <ObservedFormula>
C22 O5

>  <Name>
(E)-1-(5-methoxy-2,2-dimethyl-chromen-8-yl)-3-(4-methoxy-3-oxidanyl-phenyl)prop-2-en-1-one

>  <SystematicName>
(~{E})-1-(5-methoxy-2,2-dimethyl-chromen-8-yl)-3-(4-methoxy-3-oxidanyl-phenyl)prop-2-en-1-one

>  <Synonyms>


>  <Type>
NON-POLYMER

>  <Formula>
C22 H22 O5

>  <MolecularWeight>
366.407

>  <ModifiedDate>
2018-04-13

>  <Parent>


>  <OneLetterCode>


>  <SubcomponentList>


>  <AmbiguousFlag>
N

>  <InChI>
InChI=1S/C22H22O5/c1-22(2)12-11-16-19(25-3)10-7-15(21(16)27-22)17(23)8-5-14-6-9-20(26-4)18(24)13-14/h5-13,24H,1-4H3/b8-5+

>  <InChIKey>
XJMCEQUUSGXSES-VMPITWQZSA-N

>  <SMILES>
CC1(C=Cc2c(ccc(c2O1)C(=O)/C=C/c3ccc(c(c3)O)OC)OC)C

$$$$
