1KM3_UP6_A_2001
  RCSB PDB08012015193D
Coordinates from PDB:1KM3:A:2001 Model:1 without hydrogens
 21 22  0  0  0  0            999 V2000
   41.8290   40.0250   37.4900   N 0  0  0  0  0  0  0  0  0  0  0  0
   42.7360   39.2350   36.7940   C 0  0  0  0  0  0  0  0  0  0  0  0
   44.0550   39.5630   36.9940   N 0  0  0  0  0  0  0  0  0  0  0  0
   44.5260   40.5920   37.8110   C 0  0  0  0  0  0  0  0  0  0  0  0
   43.5220   41.3400   38.4640   C 0  0  0  0  0  0  0  0  0  0  0  0
   42.2510   41.0510   38.2980   N 0  0  0  0  0  0  0  0  0  0  0  0
   42.3560   38.3450   36.1020   O 0  0  0  0  0  0  0  0  0  0  0  0
   45.7120   40.7650   37.9090   O 0  0  0  0  0  0  0  0  0  0  0  0
   40.4060   39.7740   37.4000   C 0  0  0  0  0  0  0  0  0  0  0  0
   39.7040   39.8030   36.0620   C 0  0  0  0  0  0  0  0  0  0  0  0
   38.5490   38.8440   36.2720   C 0  0  0  0  0  0  0  0  0  0  0  0
   39.1150   37.8470   37.2340   C 0  0  0  0  0  0  0  0  0  0  0  0
   39.2910   41.1170   35.6940   O 0  0  0  0  0  0  0  0  0  0  0  0
   37.4240   39.5410   36.8350   O 0  0  0  0  0  0  0  0  0  0  0  0
   40.0830   38.5570   38.0060   O 0  0  0  0  0  0  0  0  0  0  0  0
   39.7500   36.5800   36.7100   C 0  0  0  0  0  0  0  0  0  0  0  0
   38.8170   35.9480   35.8240   O 0  0  0  0  0  0  0  0  0  0  0  0
   39.1750   34.6040   35.0350   P 0  0  0  0  0  0  0  0  0  0  0  0
   40.4410   34.7070   34.2150   O 0  0  0  0  0  0  0  0  0  0  0  0
   37.9950   34.3860   34.1440   O 0  0  0  0  0  0  0  0  0  0  0  0
   39.2200   33.4230   36.1160   O 0  0  0  0  0  0  0  0  0  0  0  0
  1  2  1  0  0  0  0
  1  6  1  0  0  0  0
  1  9  1  0  0  0  0
  2  3  1  0  0  0  0
  2  7  2  0  0  0  0
  3  4  1  0  0  0  0
  4  5  1  0  0  0  0
  4  8  2  0  0  0  0
  5  6  2  0  0  0  0
  9 10  1  0  0  0  0
  9 15  1  0  0  0  0
 10 11  1  0  0  0  0
 10 13  1  0  0  0  0
 11 12  1  0  0  0  0
 11 14  1  0  0  0  0
 12 15  1  0  0  0  0
 12 16  1  0  0  0  0
 16 17  1  0  0  0  0
 17 18  1  0  0  0  0
 18 19  2  0  0  0  0
 18 20  1  0  0  0  0
 18 21  1  0  0  0  0
M  END
>  <InstanceId>
1KM3_UP6_A_2001

>  <ChemCompId>
UP6

>  <PdbId>
1KM3

>  <ChainId>
A

>  <ResidueNumber>
2001

>  <InsertionCode>


>  <Model>
1

>  <AltIds>


>  <MissingHeavyAtoms>
0

>  <ObservedFormula>
C8 N3 O9 P

>  <Name>
6-AZA URIDINE 5'-MONOPHOSPHATE

>  <SystematicName>
[(2R,3S,4R,5R)-5-(3,5-dioxo-1,2,4-triazin-2-yl)-3,4-dihydroxy-oxolan-2-yl]methyl dihydrogen phosphate

>  <Synonyms>
6-AZA-UMP

>  <Type>
NON-POLYMER

>  <Formula>
C8 H12 N3 O9 P

>  <MolecularWeight>
325.169

>  <ModifiedDate>
2020-06-17

>  <Parent>


>  <OneLetterCode>


>  <SubcomponentList>


>  <AmbiguousFlag>
N

>  <InChI>
InChI=1S/C8H12N3O9P/c12-4-1-9-11(8(15)10-4)7-6(14)5(13)3(20-7)2-19-21(16,17)18/h1,3,5-7,13-14H,2H2,(H,10,12,15)(H2,16,17,18)/t3-,5-,6-,7-/m1/s1

>  <InChIKey>
LRVZOSYMNMNQFR-SHUUEZRQSA-N

>  <SMILES>
C1=NN(C(=O)NC1=O)[C@H]2[C@@H]([C@@H]([C@H](O2)COP(=O)(O)O)O)O

$$$$
