1QBR_XV6_A_638
  RCSB PDB08012015473D
Coordinates from PDB:1QBR:A:638 Model:1 without hydrogens
 54 60  0  0  0  0            999 V2000
   -8.4460   14.2020   27.8400   O 0  0  0  0  0  0  0  0  0  0  0  0
  -11.8430   18.6910   28.7380   O 0  0  0  0  0  0  0  0  0  0  0  0
   -9.9190   19.7200   27.0510   O 0  0  0  0  0  0  0  0  0  0  0  0
   -9.7780   15.6110   28.8990   N 0  0  0  0  0  0  0  0  0  0  0  0
   -8.6510   16.1960   26.9140   N 0  0  0  0  0  0  0  0  0  0  0  0
   -8.9560   15.3120   27.8810   C 0  0  0  0  0  0  0  0  0  0  0  0
   -9.6230   14.8260   30.1330   C 0  0  0  0  0  0  0  0  0  0  0  0
  -10.9230   16.5360   28.7990   C 0  0  0  0  0  0  0  0  0  0  0  0
  -10.6460   18.0070   28.5720   C 0  0  0  0  0  0  0  0  0  0  0  0
  -10.1090   18.3210   27.2080   C 0  0  0  0  0  0  0  0  0  0  0  0
   -8.7520   17.6730   27.0350   C 0  0  0  0  0  0  0  0  0  0  0  0
   -7.9880   15.6710   25.7060   C 0  0  0  0  0  0  0  0  0  0  0  0
  -12.0010   15.9090   27.8960   C 0  0  0  0  0  0  0  0  0  0  0  0
  -12.5630   14.6470   28.4930   C 0  0  0  0  0  0  0  0  0  0  0  0
  -12.1580   13.3910   27.9990   C 0  0  0  0  0  0  0  0  0  0  0  0
  -12.6060   12.2220   28.6510   C 0  0  0  0  0  0  0  0  0  0  0  0
  -13.4550   12.3040   29.7740   C 0  0  0  0  0  0  0  0  0  0  0  0
  -13.8720   13.5680   30.2560   C 0  0  0  0  0  0  0  0  0  0  0  0
  -13.4240   14.7360   29.6120   C 0  0  0  0  0  0  0  0  0  0  0  0
   -7.6640   18.1960   27.9900   C 0  0  0  0  0  0  0  0  0  0  0  0
   -6.3260   18.0760   27.3190   C 0  0  0  0  0  0  0  0  0  0  0  0
   -6.0210   18.9560   26.2550   C 0  0  0  0  0  0  0  0  0  0  0  0
   -4.7990   18.8260   25.5740   C 0  0  0  0  0  0  0  0  0  0  0  0
   -3.8910   17.8180   25.9710   C 0  0  0  0  0  0  0  0  0  0  0  0
   -4.2000   16.9470   27.0360   C 0  0  0  0  0  0  0  0  0  0  0  0
   -5.4260   17.0650   27.7200   C 0  0  0  0  0  0  0  0  0  0  0  0
   -9.4680   15.5820   31.4380   C 0  0  0  0  0  0  0  0  0  0  0  0
  -10.1490   15.0870   32.5620   C 0  0  0  0  0  0  0  0  0  0  0  0
  -10.0330   15.7350   33.8150   C 0  0  0  0  0  0  0  0  0  0  0  0
   -9.2250   16.8920   33.9420   C 0  0  0  0  0  0  0  0  0  0  0  0
   -8.5300   17.3960   32.8200   C 0  0  0  0  0  0  0  0  0  0  0  0
   -8.6570   16.7390   31.5700   C 0  0  0  0  0  0  0  0  0  0  0  0
  -10.7590   15.1670   35.0100   C 0  0  0  0  0  0  0  0  0  0  0  0
  -11.0610   15.8000   36.0140   O 0  0  0  0  0  0  0  0  0  0  0  0
  -11.0360   13.8670   34.8750   N 0  0  0  0  0  0  0  0  0  0  0  0
  -11.6980   11.7240   35.9440   N 0  0  0  0  0  0  0  0  0  0  0  0
  -11.6710   13.0580   35.9090   C 0  0  0  0  0  0  0  0  0  0  0  0
  -12.3190   11.2370   37.0760   C 0  0  0  0  0  0  0  0  0  0  0  0
  -12.4170   13.6750   37.2720   S 0  0  0  0  0  0  0  0  0  0  0  0
  -12.8090   12.2010   37.9730   C 0  0  0  0  0  0  0  0  0  0  0  0
   -8.6870   15.9400   24.4030   C 0  0  0  0  0  0  0  0  0  0  0  0
   -7.9080   16.2330   23.2690   C 0  0  0  0  0  0  0  0  0  0  0  0
   -8.5350   16.5210   22.0330   C 0  0  0  0  0  0  0  0  0  0  0  0
   -9.9420   16.4990   21.9300   C 0  0  0  0  0  0  0  0  0  0  0  0
  -10.7180   16.1950   23.0650   C 0  0  0  0  0  0  0  0  0  0  0  0
  -10.0960   15.9180   24.3060   C 0  0  0  0  0  0  0  0  0  0  0  0
   -7.7220   16.8850   20.8330   C 0  0  0  0  0  0  0  0  0  0  0  0
   -8.1760   17.4900   19.8740   O 0  0  0  0  0  0  0  0  0  0  0  0
   -6.4460   16.4610   20.8690   N 0  0  0  0  0  0  0  0  0  0  0  0
   -4.4230   15.9820   19.4880   N 0  0  0  0  0  0  0  0  0  0  0  0
   -5.5340   16.7010   19.7570   C 0  0  0  0  0  0  0  0  0  0  0  0
   -3.8060   16.3680   18.3150   C 0  0  0  0  0  0  0  0  0  0  0  0
   -5.7880   17.8570   18.5520   S 0  0  0  0  0  0  0  0  0  0  0  0
   -4.4360   17.4240   17.6230   C 0  0  0  0  0  0  0  0  0  0  0  0
  1  6  2  0  0  0  0
  2  9  1  0  0  0  0
  3 10  1  0  0  0  0
  4  6  1  0  0  0  0
  4  7  1  0  0  0  0
  4  8  1  0  0  0  0
  5  6  1  0  0  0  0
  5 11  1  0  0  0  0
  5 12  1  0  0  0  0
  7 27  1  0  0  0  0
  8  9  1  0  0  0  0
  8 13  1  0  0  0  0
  9 10  1  0  0  0  0
 10 11  1  0  0  0  0
 11 20  1  0  0  0  0
 12 41  1  0  0  0  0
 13 14  1  0  0  0  0
 14 15  2  0  0  0  0
 14 19  1  0  0  0  0
 15 16  1  0  0  0  0
 16 17  2  0  0  0  0
 17 18  1  0  0  0  0
 18 19  2  0  0  0  0
 20 21  1  0  0  0  0
 21 22  2  0  0  0  0
 21 26  1  0  0  0  0
 22 23  1  0  0  0  0
 23 24  2  0  0  0  0
 24 25  1  0  0  0  0
 25 26  2  0  0  0  0
 27 28  2  0  0  0  0
 27 32  1  0  0  0  0
 28 29  1  0  0  0  0
 29 30  2  0  0  0  0
 29 33  1  0  0  0  0
 30 31  1  0  0  0  0
 31 32  2  0  0  0  0
 33 34  2  0  0  0  0
 33 35  1  0  0  0  0
 35 37  1  0  0  0  0
 36 37  2  0  0  0  0
 36 38  1  0  0  0  0
 37 39  1  0  0  0  0
 38 40  2  0  0  0  0
 39 40  1  0  0  0  0
 41 42  2  0  0  0  0
 41 46  1  0  0  0  0
 42 43  1  0  0  0  0
 43 44  2  0  0  0  0
 43 47  1  0  0  0  0
 44 45  1  0  0  0  0
 45 46  2  0  0  0  0
 47 48  2  0  0  0  0
 47 49  1  0  0  0  0
 49 51  1  0  0  0  0
 50 51  2  0  0  0  0
 50 52  1  0  0  0  0
 51 53  1  0  0  0  0
 52 54  2  0  0  0  0
 53 54  1  0  0  0  0
M  END
>  <InstanceId>
1QBR_XV6_A_638

>  <ChemCompId>
XV6

>  <PdbId>
1QBR

>  <ChainId>
A

>  <ResidueNumber>
638

>  <InsertionCode>


>  <Model>
1

>  <AltIds>


>  <MissingHeavyAtoms>
0

>  <ObservedFormula>
C41 N6 O5 S2

>  <Name>
[4R-(4ALPHA,5ALPHA,6BETA,7BETA)]-3,3'-[[TETRAHYDRO-5,6-DIHYDROXY-2-OXO-4,7-BIS(PHENYLMETHYL)-1H-1,3-DIAZEPINE-1,3(2H)-D IYL] BIS(METHYLENE)]BIS[N-2-THIAZOLYLBENZAMIDE]

>  <SystematicName>
3-[[(4R,5S,6S,7R)-5,6-dihydroxy-2-oxo-4,7-bis(phenylmethyl)-3-[[3-(1,3-thiazol-2-ylcarbamoyl)phenyl]methyl]-1,3-diazepan-1-yl]methyl]-N-(1,3-thiazol-2-yl)benzamide

>  <Synonyms>
XV638

>  <Type>
NON-POLYMER

>  <Formula>
C41 H38 N6 O5 S2

>  <MolecularWeight>
758.908

>  <ModifiedDate>
2020-06-17

>  <Parent>


>  <OneLetterCode>


>  <SubcomponentList>


>  <AmbiguousFlag>
N

>  <InChI>
InChI=1S/C41H38N6O5S2/c48-35-33(23-27-9-3-1-4-10-27)46(25-29-13-7-15-31(21-29)37(50)44-39-42-17-19-53-39)41(52)47(34(36(35)49)24-28-11-5-2-6-12-28)26-30-14-8-16-32(22-30)38(51)45-40-43-18-20-54-40/h1-22,33-36,48-49H,23-26H2,(H,42,44,50)(H,43,45,51)/t33-,34-,35+,36+/m1/s1

>  <InChIKey>
JDALSSGOBMTZEP-NWJWHWDBSA-N

>  <SMILES>
c1ccc(cc1)C[C@@H]2[C@@H]([C@H]([C@H](N(C(=O)N2Cc3cccc(c3)C(=O)Nc4nccs4)Cc5cccc(c5)C(=O)Nc6nccs6)Cc7ccccc7)O)O

$$$$
