4XU0_44N_A_301
  RCSB PDB08022000233D
Coordinates from PDB:4XU0:A:301 Model:1 without hydrogens
 39 43  0  0  0  0            999 V2000
   -8.1296   -0.5916   12.0713   C 0  0  0  0  0  0  0  0  0  0  0  0
   -5.5272   -0.7005   12.8131   C 0  0  0  0  0  0  0  0  0  0  0  0
   -5.8743   -0.4154   11.5046   C 0  0  0  0  0  0  0  0  0  0  0  0
   -7.1807   -0.3614   11.1564   N 0  0  0  0  0  0  0  0  0  0  0  0
   -3.7160   -0.4083   11.6396   C 0  0  0  0  0  0  0  0  0  0  0  0
   -7.8211   -0.8659   13.3433   N 0  0  0  0  0  0  0  0  0  0  0  0
   -6.5338   -0.9292   13.7439   C 0  0  0  0  0  0  0  0  0  0  0  0
   -2.2311   -9.9870   13.8274   C 0  0  0  0  0  0  0  0  0  0  0  0
   -1.0028   -9.2805   13.5085   N 0  0  0  0  0  0  0  0  0  0  0  0
   -0.0725   -9.4698   14.4389   C 0  0  0  0  0  0  0  0  0  0  0  0
    0.9875   -8.8634   14.5086   O 0  0  0  0  0  0  0  0  0  0  0  0
   -0.4788  -10.3824   15.3116   N 0  0  0  0  0  0  0  0  0  0  0  0
   -1.8925  -10.6482   15.1658   C 0  0  0  0  0  0  0  0  0  0  0  0
   -2.6234  -10.0168   16.3423   C 0  0  0  0  0  0  0  0  0  0  0  0
   -3.4338   -8.6163   15.6640   S 0  0  0  0  0  0  0  0  0  0  0  0
   -3.4343   -9.0583   13.9564   C 0  0  0  0  0  0  0  0  0  0  0  0
   -3.3332   -7.8766   12.9976   C 0  0  0  0  0  0  0  0  0  0  0  0
   -3.7215   -8.3486   11.6017   C 0  0  0  0  0  0  0  0  0  0  0  0
   -3.9681   -7.1735   10.6674   C 0  0  0  0  0  0  0  0  0  0  0  0
   -4.2036   -7.6425    9.2348   C 0  0  0  0  0  0  0  0  0  0  0  0
   -4.5880   -6.4552    8.3845   C 0  0  0  0  0  0  0  0  0  0  0  0
   -5.6773   -5.9277    8.5198   O 0  0  0  0  0  0  0  0  0  0  0  0
   -3.6820   -6.0401    7.5066   N 0  0  0  0  0  0  0  0  0  0  0  0
   -4.0424   -4.9337    6.4096   S 0  0  0  0  0  0  0  0  0  0  0  0
   -5.2109   -5.3338    5.6801   O 0  0  0  0  0  0  0  0  0  0  0  0
   -2.9489   -4.8003    5.4882   O 0  0  0  0  0  0  0  0  0  0  0  0
   -4.3288   -3.5771    7.0636   O 0  0  0  0  0  0  0  0  0  0  0  0
   -3.3838   -2.8953    7.8832   C 0  0  0  0  0  0  0  0  0  0  0  0
   -3.7701   -1.4222    7.8211   C 0  0  0  0  0  0  0  0  0  0  0  0
   -4.9132   -1.1593    8.6482   O 0  0  0  0  0  0  0  0  0  0  0  0
   -2.6889   -0.4610    8.2857   C 0  0  0  0  0  0  0  0  0  0  0  0
   -1.8317   -0.1087    7.1983   O 0  0  0  0  0  0  0  0  0  0  0  0
   -3.5189    0.7277    8.7189   C 0  0  0  0  0  0  0  0  0  0  0  0
   -3.9551    1.3990    7.5325   O 0  0  0  0  0  0  0  0  0  0  0  0
   -2.7524    1.7416    9.5639   C 0  0  0  0  0  0  0  0  0  0  0  0
   -4.7630    0.0874    9.3435   C 0  0  0  0  0  0  0  0  0  0  0  0
   -4.7529   -0.2251   10.8035   N 0  0  0  0  0  0  0  0  0  0  0  0
   -4.1804   -0.6880   12.8776   N 0  0  0  0  0  0  0  0  0  0  0  0
   -6.2407   -1.2142   15.0376   N 0  0  0  0  0  0  0  0  0  0  0  0
 26 24  2  0  0  0  0
 25 24  2  0  0  0  0
 24 27  1  0  0  0  0
 24 23  1  0  0  0  0
 27 28  1  0  0  0  0
 32 31  1  0  0  0  0
 23 21  1  0  0  0  0
 34 33  1  0  0  0  0
 29 28  1  0  0  0  0
 29 31  1  0  0  0  0
 29 30  1  0  0  0  0
 31 33  1  0  0  0  0
 21 22  2  0  0  0  0
 21 20  1  0  0  0  0
 30 36  1  0  0  0  0
 33 36  1  0  0  0  0
 33 35  1  0  0  0  0
 20 19  1  0  0  0  0
 36 37  1  0  0  0  0
 19 18  1  0  0  0  0
 37  3  1  0  0  0  0
 37  5  1  0  0  0  0
  4  3  2  0  0  0  0
  4  1  1  0  0  0  0
  3  2  1  0  0  0  0
 18 17  1  0  0  0  0
  5 38  2  0  0  0  0
  1  6  2  0  0  0  0
  2 38  1  0  0  0  0
  2  7  2  0  0  0  0
 17 16  1  0  0  0  0
  6  7  1  0  0  0  0
  9  8  1  0  0  0  0
  9 10  1  0  0  0  0
  7 39  1  0  0  0  0
  8 16  1  0  0  0  0
  8 13  1  0  0  0  0
 16 15  1  0  0  0  0
 10 11  2  0  0  0  0
 10 12  1  0  0  0  0
 13 12  1  0  0  0  0
 13 14  1  0  0  0  0
 15 14  1  0  0  0  0
M  END
>  <InstanceId>
4XU0_44N_A_301

>  <ChemCompId>
44N

>  <PdbId>
4XU0

>  <ChainId>
A

>  <ResidueNumber>
301

>  <InsertionCode>


>  <Model>
1

>  <AltIds>


>  <MissingHeavyAtoms>
0

>  <ObservedFormula>
C21 N8 O8 S2

>  <Name>
2'-C-methyl-5'-O-({5-[(3aS,4S,6aR)-2-oxohexahydro-1H-thieno[3,4-d]imidazol-4-yl]pentanoyl}sulfamoyl)adenosine

>  <SystematicName>
[(2R,3R,4R,5R)-5-(6-aminopurin-9-yl)-4-methyl-3,4-bis(oxidanyl)oxolan-2-yl]methyl N-[5-[(3aS,4S,6aR)-2-oxidanylidene-1,3,3a,4,6,6a-hexahydrothieno[3,4-d]imidazol-4-yl]pentanoyl]sulfamate

>  <Synonyms>


>  <Type>
NON-POLYMER

>  <Formula>
C21 H30 N8 O8 S2

>  <MolecularWeight>
586.642

>  <ModifiedDate>
2015-08-28

>  <Parent>


>  <OneLetterCode>


>  <SubcomponentList>


>  <AmbiguousFlag>
N

>  <InChI>
InChI=1S/C21H30N8O8S2/c1-21(33)16(31)11(37-19(21)29-9-25-15-17(22)23-8-24-18(15)29)6-36-39(34,35)28-13(30)5-3-2-4-12-14-10(7-38-12)26-20(32)27-14/h8-12,14,16,19,31,33H,2-7H2,1H3,(H,28,30)(H2,22,23,24)(H2,26,27,32)/t10-,11+,12-,14-,16+,19+,21+/m0/s1

>  <InChIKey>
BGUXFAITPCEERX-BKJQVYKZSA-N

>  <SMILES>
C[C@]1([C@@H]([C@H](O[C@H]1n2cnc3c2ncnc3N)COS(=O)(=O)NC(=O)CCCC[C@H]4[C@@H]5[C@H](CS4)NC(=O)N5)O)O

$$$$
