2HOC_1CN_A_265
  RCSB PDB08012017093D
Coordinates from PDB:2HOC:A:265 Model:1 without hydrogens
 22 23  0  0  0  0            999 V2000
   -5.7200    0.8180   16.6140   S 0  0  0  0  0  0  0  0  0  0  0  0
   -7.1140    0.9350   16.5620   O 0  0  0  0  0  0  0  0  0  0  0  0
   -5.2540    1.0250   17.9420   O 0  0  0  0  0  0  0  0  0  0  0  0
   -5.2880   -0.6130   16.1320   N 0  0  0  0  0  0  0  0  0  0  0  0
   -3.7220    2.3480   15.4350   N 0  0  0  0  0  0  0  0  0  0  0  0
   -3.5280    3.4480   14.6020   N 0  0  0  0  0  0  0  0  0  0  0  0
   -5.9640    3.3760   15.0470   S 0  0  0  0  0  0  0  0  0  0  0  0
   -5.0080    2.0370   15.5080   C 0  0  0  0  0  0  0  0  0  0  0  0
   -4.6940    3.9880   14.2070   C 0  0  0  0  0  0  0  0  0  0  0  0
   -4.9220    5.2840   13.9070   N 0  0  0  0  0  0  0  0  0  0  0  0
   -4.4080    6.0460   12.8690   S 0  0  0  0  0  0  0  0  0  0  0  0
   -5.4360    6.7450   12.2210   O 0  0  0  0  0  0  0  0  0  0  0  0
   -3.7210    5.1780   11.9160   O 0  0  0  0  0  0  0  0  0  0  0  0
   -3.0410    7.3160   14.9540   C 0  0  0  0  0  0  0  0  0  0  0  0
   -2.3750    8.0070   12.6680   C 0  0  0  0  0  0  0  0  0  0  0  0
   -2.2490    8.3410   15.5060   C 0  0  0  0  0  0  0  0  0  0  0  0
   -1.4530    9.1750   14.6500   C 0  0  0  0  0  0  0  0  0  0  0  0
   -1.5770    9.0420   13.2100   C 0  0  0  0  0  0  0  0  0  0  0  0
   -3.1560    7.1570   13.5310   C 0  0  0  0  0  0  0  0  0  0  0  0
   -2.1650    8.4320   16.8040   F 0  0  0  0  0  0  0  0  0  0  0  0
   -0.7470    9.9220   12.2730  Cl 0  0  0  0  0  0  0  0  0  0  0  0
   -0.6150   10.1360   15.2440   N 0  0  0  0  0  0  0  0  0  0  0  0
  1  2  2  0  0  0  0
  1  3  2  0  0  0  0
  1  4  1  0  0  0  0
  1  8  1  0  0  0  0
  5  6  1  0  0  0  0
  5  8  2  0  0  0  0
  6  9  2  0  0  0  0
  7  8  1  0  0  0  0
  7  9  1  0  0  0  0
  9 10  1  0  0  0  0
 10 11  1  0  0  0  0
 11 12  2  0  0  0  0
 11 13  2  0  0  0  0
 11 19  1  0  0  0  0
 14 16  1  0  0  0  0
 14 19  2  0  0  0  0
 15 18  2  0  0  0  0
 15 19  1  0  0  0  0
 16 17  2  0  0  0  0
 16 20  1  0  0  0  0
 17 18  1  0  0  0  0
 17 22  1  0  0  0  0
 18 21  1  0  0  0  0
M  END
>  <InstanceId>
2HOC_1CN_A_265

>  <ChemCompId>
1CN

>  <PdbId>
2HOC

>  <ChainId>
A

>  <ResidueNumber>
265

>  <InsertionCode>


>  <Model>
1

>  <AltIds>


>  <MissingHeavyAtoms>
0

>  <ObservedFormula>
C8 N5 O4 S3 F Cl

>  <Name>
5-{[(4-AMINO-3-CHLORO-5-FLUOROPHENYL)SULFONYL]AMINO}-1,3,4-THIADIAZOLE-2-SULFONAMIDE

>  <SystematicName>
5-[(4-amino-3-chloro-5-fluoro-phenyl)sulfonylamino]-1,3,4-thiadiazole-2-sulfonamide

>  <Synonyms>


>  <Type>
NON-POLYMER

>  <Formula>
C8 H7 Cl F N5 O4 S3

>  <MolecularWeight>
387.819

>  <ModifiedDate>
2011-06-04

>  <Parent>


>  <OneLetterCode>


>  <SubcomponentList>


>  <AmbiguousFlag>
N

>  <InChI>
InChI=1S/C8H7ClFN5O4S3/c9-4-1-3(2-5(10)6(4)11)22(18,19)15-7-13-14-8(20-7)21(12,16)17/h1-2H,11H2,(H,13,15)(H2,12,16,17)

>  <InChIKey>
HOLJYLOVIHBQHO-UHFFFAOYSA-N

>  <SMILES>
c1c(cc(c(c1F)N)Cl)S(=O)(=O)Nc2nnc(s2)S(=O)(=O)N

$$$$
