2J27_PGA_A_701
  RCSB PDB08012017153D
Coordinates from PDB:2J27:A:701 Model:1 without hydrogens
  9  8  0  0  0  0            999 V2000
   13.0610    6.1850    5.4680   P 0  0  0  0  0  0  0  0  0  0  0  0
   14.3700    6.3790    6.4440   O 0  0  0  0  0  0  0  0  0  0  0  0
   13.1900    7.2460    4.4020   O 0  0  0  0  0  0  0  0  0  0  0  0
   11.8290    6.4020    6.3430   O 0  0  0  0  0  0  0  0  0  0  0  0
   13.1710    4.7950    4.9530   O 0  0  0  0  0  0  0  0  0  0  0  0
   14.5310    7.7100    7.1250   C 0  0  0  0  0  0  0  0  0  0  0  0
   15.4470    7.6100    8.1930   C 0  0  0  0  0  0  0  0  0  0  0  0
   15.3880    8.6510    9.0220   O 0  0  0  0  0  0  0  0  0  0  0  0
   16.2100    6.6680    8.3260   O 0  0  0  0  0  0  0  0  0  0  0  0
  1  2  1  0  0  0  0
  1  3  2  0  0  0  0
  1  4  1  0  0  0  0
  1  5  1  0  0  0  0
  2  6  1  0  0  0  0
  6  7  1  0  0  0  0
  7  8  2  0  0  0  0
  7  9  1  0  0  0  0
M  END
>  <InstanceId>
2J27_PGA_A_701

>  <ChemCompId>
PGA

>  <PdbId>
2J27

>  <ChainId>
A

>  <ResidueNumber>
701

>  <InsertionCode>


>  <Model>
1

>  <AltIds>


>  <MissingHeavyAtoms>
0

>  <ObservedFormula>
C2 O6 P

>  <Name>
2-PHOSPHOGLYCOLIC ACID

>  <SystematicName>
2-phosphonooxyethanoic acid

>  <Synonyms>


>  <Type>
NON-POLYMER

>  <Formula>
C2 H5 O6 P

>  <MolecularWeight>
156.031

>  <ModifiedDate>
2011-06-04

>  <Parent>


>  <OneLetterCode>


>  <SubcomponentList>


>  <AmbiguousFlag>
N

>  <InChI>
InChI=1S/C2H5O6P/c3-2(4)1-8-9(5,6)7/h1H2,(H,3,4)(H2,5,6,7)

>  <InChIKey>
ASCFNMCAHFUBCO-UHFFFAOYSA-N

>  <SMILES>
C(C(=O)O)OP(=O)(O)O

$$$$
