3SU6_SU3_A_1
  RCSB PDB08012020303D
Coordinates from PDB:3SU6:A:1 Model:1 without hydrogens
 53 58  0  0  0  0            999 V2000
  -13.1670   -8.2360   14.1050   C 0  0  0  0  0  0  0  0  0  0  0  0
  -15.0370   -9.7380   13.5600   N 0  0  0  0  0  0  0  0  0  0  0  0
  -13.3300   -7.4750   13.1520   O 0  0  0  0  0  0  0  0  0  0  0  0
  -13.6390   -9.7030   14.0420   C 0  0  0  0  0  0  0  0  0  0  0  0
  -12.8810  -10.5150   13.0170   C 0  0  0  0  0  0  0  0  0  0  0  0
  -13.9050  -11.5560   12.5820   C 0  0  0  0  0  0  0  0  0  0  0  0
  -16.0220   -9.0110   14.1010   C 0  0  0  0  0  0  0  0  0  0  0  0
  -15.7780   -8.2560   15.0510   O 0  0  0  0  0  0  0  0  0  0  0  0
  -17.4090   -9.0830   13.5160   C 0  0  0  0  0  0  0  0  0  0  0  0
  -18.3520   -9.3380   14.6020   N 0  0  0  0  0  0  0  0  0  0  0  0
  -18.9620  -10.5050   14.7420   C 0  0  0  0  0  0  0  0  0  0  0  0
  -19.7660  -10.5530   15.8190   O 0  0  0  0  0  0  0  0  0  0  0  0
  -17.7850   -7.7940   12.7300   C 0  0  0  0  0  0  0  0  0  0  0  0
  -18.8460  -11.4490   13.9560   O 0  0  0  0  0  0  0  0  0  0  0  0
  -13.2810  -13.5920   13.6730   C 0  0  0  0  0  0  0  0  0  0  0  0
  -12.4010  -13.7490   12.8300   O 0  0  0  0  0  0  0  0  0  0  0  0
  -13.4530  -14.4660   14.6440   N 0  0  0  0  0  0  0  0  0  0  0  0
  -13.6390   -4.1830   15.5280   C 0  0  0  0  0  0  0  0  0  0  0  0
  -14.0700   -3.9800   14.0860   C 0  0  0  0  0  0  0  0  0  0  0  0
  -19.1540   -8.0200   12.0660   C 0  0  0  0  0  0  0  0  0  0  0  0
  -12.5760   -7.8850   15.2410   N 0  0  0  0  0  0  0  0  0  0  0  0
  -12.2780   -6.5050   15.5610   C 0  0  0  0  0  0  0  0  0  0  0  0
  -11.0370   -5.8800   14.9480   C 0  0  0  0  0  0  0  0  0  0  0  0
  -13.5550   -5.6760   15.8630   C 0  0  0  0  0  0  0  0  0  0  0  0
  -12.6100   -6.0870   16.9800   C 0  0  0  0  0  0  0  0  0  0  0  0
  -12.7530  -15.7370   14.9020   C 0  0  0  0  0  0  0  0  0  0  0  0
  -13.3740  -16.3040   16.1690   C 0  0  0  0  0  0  0  0  0  0  0  0
  -14.3540  -15.4340   16.6200   C 0  0  0  0  0  0  0  0  0  0  0  0
  -14.4700  -14.2330   15.6840   C 0  0  0  0  0  0  0  0  0  0  0  0
  -13.1160  -17.4750   16.8810   C 0  0  0  0  0  0  0  0  0  0  0  0
  -13.8390  -17.7470   18.0370   C 0  0  0  0  0  0  0  0  0  0  0  0
  -14.8170  -16.8640   18.4820   C 0  0  0  0  0  0  0  0  0  0  0  0
  -15.0890  -15.6930   17.7730   C 0  0  0  0  0  0  0  0  0  0  0  0
  -16.1640  -14.7590   18.3250   C 0  0  0  0  0  0  0  0  0  0  0  0
  -10.2690   -6.6940   14.2140   N 0  0  0  0  0  0  0  0  0  0  0  0
  -10.7760   -4.7070   15.2180   O 0  0  0  0  0  0  0  0  0  0  0  0
   -8.9790   -5.9850   13.5920   S 0  0  0  0  0  0  0  0  0  0  0  0
   -8.2210   -7.2790   12.6340   C 0  0  0  0  0  0  0  0  0  0  0  0
   -9.3660   -4.9470   12.6480   O 0  0  0  0  0  0  0  0  0  0  0  0
   -8.0190   -5.5150   14.5760   O 0  0  0  0  0  0  0  0  0  0  0  0
   -6.8040   -6.9940   12.1820   C 0  0  0  0  0  0  0  0  0  0  0  0
   -7.0620   -8.0220   13.2870   C 0  0  0  0  0  0  0  0  0  0  0  0
  -17.5460  -15.0480   17.7650   C 0  0  0  0  0  0  0  0  0  0  0  0
  -18.5210  -13.9560   18.2230   C 0  0  0  0  0  0  0  0  0  0  0  0
  -18.9900  -13.1330   17.0240   C 0  0  0  0  0  0  0  0  0  0  0  0
  -20.3290  -12.4280   17.2550   C 0  0  0  0  0  0  0  0  0  0  0  0
  -20.6290  -11.6860   15.9650   C 0  0  0  0  0  0  0  0  0  0  0  0
  -21.4510  -13.4460   17.4810   C 0  0  0  0  0  0  0  0  0  0  0  0
  -20.2540  -11.4410   18.4320   C 0  0  0  0  0  0  0  0  0  0  0  0
  -17.8560   -6.5380   13.5990   C 0  0  0  0  0  0  0  0  0  0  0  0
  -16.7360   -7.5650   11.6480   C 0  0  0  0  0  0  0  0  0  0  0  0
  -15.2010  -10.7410   12.4810   C 0  0  0  0  0  0  0  0  0  0  0  0
  -14.1000  -12.5160   13.6520   O 0  0  0  0  0  0  0  0  0  0  0  0
  1 21  1  0  0  0  0
  2  7  1  0  0  0  0
  2  4  1  0  0  0  0
  3  1  2  0  0  0  0
  4  1  1  0  0  0  0
  5  4  1  0  0  0  0
  6  5  1  0  0  0  0
  6 53  1  0  0  0  0
  7  8  2  0  0  0  0
  9  7  1  0  0  0  0
  9 10  1  0  0  0  0
 10 11  1  0  0  0  0
 11 12  1  0  0  0  0
 12 47  1  0  0  0  0
 13  9  1  0  0  0  0
 13 50  1  0  0  0  0
 14 11  2  0  0  0  0
 15 17  1  0  0  0  0
 16 15  2  0  0  0  0
 17 26  1  0  0  0  0
 17 29  1  0  0  0  0
 18 24  1  0  0  0  0
 19 18  1  0  0  0  0
 20 13  1  0  0  0  0
 21 22  1  0  0  0  0
 22 24  1  0  0  0  0
 22 25  1  0  0  0  0
 23 22  1  0  0  0  0
 23 36  2  0  0  0  0
 24 25  1  0  0  0  0
 26 27  1  0  0  0  0
 27 28  2  0  0  0  0
 27 30  1  0  0  0  0
 28 33  1  0  0  0  0
 29 28  1  0  0  0  0
 30 31  2  0  0  0  0
 31 32  1  0  0  0  0
 33 32  2  0  0  0  0
 33 34  1  0  0  0  0
 34 43  1  0  0  0  0
 35 23  1  0  0  0  0
 37 35  1  0  0  0  0
 37 40  2  0  0  0  0
 38 37  1  0  0  0  0
 38 42  1  0  0  0  0
 39 37  2  0  0  0  0
 41 38  1  0  0  0  0
 41 42  1  0  0  0  0
 43 44  1  0  0  0  0
 45 44  1  0  0  0  0
 46 45  1  0  0  0  0
 46 48  1  0  0  0  0
 46 49  1  0  0  0  0
 47 46  1  0  0  0  0
 51 13  1  0  0  0  0
 52  2  1  0  0  0  0
 52  6  1  0  0  0  0
 53 15  1  0  0  0  0
M  END
>  <InstanceId>
3SU6_SU3_A_1

>  <ChemCompId>
SU3

>  <PdbId>
3SU6

>  <ChainId>
A

>  <ResidueNumber>
1

>  <InsertionCode>


>  <Model>
1

>  <AltIds>


>  <MissingHeavyAtoms>
0

>  <ObservedFormula>
C38 N5 O9 S

>  <Name>
(5R,7S,10S)-10-tert-butyl-N-{(1R,2R)-1-[(cyclopropylsulfonyl)carbamoyl]-2-ethylcyclopropyl}-15,15-dimethyl-3,9,12-trioxo-6,7,9,10,11,12,14,15,16,17,18,19-dodecahydro-1H,5H-2,23:5,8-dimethano-4,13,2,8,11-benzodioxatriazacyclohenicosine-7(3H)-carboxamide

>  <SystematicName>


>  <Synonyms>
vaniprevir; MK-7009

>  <Type>
NON-POLYMER

>  <Formula>
C38 H55 N5 O9 S

>  <MolecularWeight>
757.936

>  <ModifiedDate>
2020-05-27

>  <Parent>


>  <OneLetterCode>


>  <SubcomponentList>


>  <AmbiguousFlag>
N

>  <InChI>
InChI=1S/C38H55N5O9S/c1-7-25-18-38(25,33(46)41-53(49,50)27-14-15-27)40-31(44)29-17-26-20-43(29)32(45)30(36(2,3)4)39-34(47)51-22-37(5,6)16-9-8-11-23-12-10-13-24-19-42(21-28(23)24)35(48)52-26/h10,12-13,25-27,29-30H,7-9,11,14-22H2,1-6H3,(H,39,47)(H,40,44)(H,41,46)/t25-,26-,29+,30-,38-/m1/s1

>  <InChIKey>
KUQWGLQLLVFLSM-ONAXAZCASA-N

>  <SMILES>
CC[C@@H]1C[C@@]1(C(=O)NS(=O)(=O)C2CC2)NC(=O)[C@@H]3C[C@@H]4CN3C(=O)[C@@H](NC(=O)OCC(CCCCc5cccc6c5CN(C6)C(=O)O4)(C)C)C(C)(C)C

$$$$
