5DHU_5A8_A_302
  RCSB PDB08022001063D
Coordinates from PDB:5DHU:A:302 Model:1 without hydrogens
 37 41  0  0  0  0            999 V2000
   13.9500  -19.2650  -45.5760   C 0  0  0  0  0  0  0  0  0  0  0  0
   11.7810  -18.7890  -45.2760   C 0  0  0  0  0  0  0  0  0  0  0  0
   11.7320  -18.2700  -46.5200   C 0  0  0  0  0  0  0  0  0  0  0  0
   12.8670  -18.2530  -47.2790   C 0  0  0  0  0  0  0  0  0  0  0  0
   10.6120  -18.6830  -44.7510   N 0  0  0  0  0  0  0  0  0  0  0  0
   10.0260  -20.8070  -48.0730   C 0  0  0  0  0  0  0  0  0  0  0  0
   11.3430  -21.0470  -48.3250   C 0  0  0  0  0  0  0  0  0  0  0  0
   12.0850  -21.7640  -47.4220   C 0  0  0  0  0  0  0  0  0  0  0  0
   11.5080  -22.2340  -46.2740   C 0  0  0  0  0  0  0  0  0  0  0  0
   10.1880  -21.9960  -46.0360   C 0  0  0  0  0  0  0  0  0  0  0  0
    9.4650  -21.2860  -46.9380   C 0  0  0  0  0  0  0  0  0  0  0  0
    8.2260  -20.9260  -46.9290   N 0  0  0  0  0  0  0  0  0  0  0  0
    7.9710  -20.2500  -48.0150   C 0  0  0  0  0  0  0  0  0  0  0  0
    9.0400  -20.1590  -48.7450   C 0  0  0  0  0  0  0  0  0  0  0  0
    9.0960  -19.4180  -50.0570   C 0  0  0  0  0  0  0  0  0  0  0  0
    8.2440  -18.1550  -50.0190   C 0  0  0  0  0  0  0  0  0  0  0  0
    8.4360  -17.5150  -48.7350   N 0  0  0  0  0  0  0  0  0  0  0  0
    7.4660  -17.1160  -47.9870   C 0  0  0  0  0  0  0  0  0  0  0  0
    6.3120  -17.1880  -48.3230   O 0  0  0  0  0  0  0  0  0  0  0  0
    7.8900  -16.5260  -46.6490   C 0  0  0  0  0  0  0  0  0  0  0  0
    8.2410  -17.7800  -45.3730   S 0  0  0  0  0  0  0  0  0  0  0  0
    9.8530  -18.1080  -45.6230   C 0  0  0  0  0  0  0  0  0  0  0  0
   10.5180  -17.8530  -46.7040   N 0  0  0  0  0  0  0  0  0  0  0  0
   12.9030  -17.7680  -48.4740   N 0  0  0  0  0  0  0  0  0  0  0  0
   13.9460  -18.7600  -46.7740   N 0  0  0  0  0  0  0  0  0  0  0  0
   12.8970  -19.2850  -44.8280   N 0  0  0  0  0  0  0  0  0  0  0  0
   10.2300  -19.1450  -43.4450   C 0  0  0  0  0  0  0  0  0  0  0  0
    9.0940  -19.8990  -43.6980   O 0  0  0  0  0  0  0  0  0  0  0  0
    9.7630  -18.0630  -42.4900   C 0  0  0  0  0  0  0  0  0  0  0  0
   10.5900  -18.1170  -41.3870   O 0  0  0  0  0  0  0  0  0  0  0  0
    8.4000  -18.5320  -42.0490   C 0  0  0  0  0  0  0  0  0  0  0  0
    8.2630  -18.4180  -40.6500   O 0  0  0  0  0  0  0  0  0  0  0  0
    8.4300  -19.9840  -42.4810   C 0  0  0  0  0  0  0  0  0  0  0  0
    7.0080  -20.4530  -42.7440   C 0  0  0  0  0  0  0  0  0  0  0  0
    6.9540  -21.9150  -42.7220   N 0  0  0  0  0  0  0  0  0  0  0  0
    6.9070  -22.5600  -43.8300   N 0  3  0  0  0  0  0  0  0  0  0  0
    6.8600  -23.2070  -44.9360   N 0  5  0  0  0  0  0  0  0  0  0  0
 15 16  1  0  0  0  0
 15 14  1  0  0  0  0
 16 17  1  0  0  0  0
 14  6  1  0  0  0  0
 14 13  2  0  0  0  0
 17 18  1  0  0  0  0
 24  4  1  0  0  0  0
  7  6  2  0  0  0  0
  7  8  1  0  0  0  0
 19 18  2  0  0  0  0
  6 11  1  0  0  0  0
 13 12  1  0  0  0  0
 18 20  1  0  0  0  0
  8  9  2  0  0  0  0
  4 25  2  0  0  0  0
  4  3  1  0  0  0  0
 11 12  1  0  0  0  0
 11 10  2  0  0  0  0
 25  1  1  0  0  0  0
 23  3  1  0  0  0  0
 23 22  2  0  0  0  0
 20 21  1  0  0  0  0
  3  2  2  0  0  0  0
  9 10  1  0  0  0  0
 22 21  1  0  0  0  0
 22  5  1  0  0  0  0
  1 26  2  0  0  0  0
  2 26  1  0  0  0  0
  2  5  1  0  0  0  0
 37 36  2  0  0  0  0
  5 27  1  0  0  0  0
 36 35  2  0  0  0  0
 28 27  1  0  0  0  0
 28 33  1  0  0  0  0
 27 29  1  0  0  0  0
 34 35  1  0  0  0  0
 34 33  1  0  0  0  0
 29 31  1  0  0  0  0
 29 30  1  0  0  0  0
 33 31  1  0  0  0  0
 31 32  1  0  0  0  0
M  CHG  2  36   1  37  -1
M  END
>  <InstanceId>
5DHU_5A8_A_302

>  <ChemCompId>
5A8

>  <PdbId>
5DHU

>  <ChainId>
A

>  <ResidueNumber>
302

>  <InsertionCode>


>  <Model>
1

>  <AltIds>


>  <MissingHeavyAtoms>
0

>  <ObservedFormula>
C22 N10 O4 S

>  <Name>
5'-azido-5'-deoxy-8-[(2-{[2-(1H-indol-3-yl)ethyl]amino}-2-oxoethyl)sulfanyl]adenosine

>  <SystematicName>
2-[6-azanyl-9-[(2R,3R,4S,5R)-5-(azidomethyl)-3,4-bis(oxidanyl)oxolan-2-yl]purin-8-yl]sulfanyl-N-[2-(1H-indol-3-yl)ethyl]ethanamide

>  <Synonyms>


>  <Type>
NON-POLYMER

>  <Formula>
C22 H24 N10 O4 S

>  <MolecularWeight>
524.556

>  <ModifiedDate>
2016-09-09

>  <Parent>


>  <OneLetterCode>


>  <SubcomponentList>


>  <AmbiguousFlag>
N

>  <InChI>
InChI=1S/C22H24N10O4S/c23-19-16-20(28-10-27-19)32(21-18(35)17(34)14(36-21)8-29-31-24)22(30-16)37-9-15(33)25-6-5-11-7-26-13-4-2-1-3-12(11)13/h1-4,7,10,14,17-18,21,26,34-35H,5-6,8-9H2,(H,25,33)(H2,23,27,28)/t14-,17-,18-,21-/m1/s1

>  <InChIKey>
NZVSVIHQZMZCNV-HAXDFEGKSA-N

>  <SMILES>
c1ccc2c(c1)c(c[nH]2)CCNC(=O)CSc3nc4c(ncnc4n3[C@H]5[C@@H]([C@@H]([C@H](O5)CN=[N+]=[N-])O)O)N

$$$$
