4EXS_X8Z_B_301
  RCSB PDB08012021393D
Coordinates from PDB:4EXS:B:301 Model:1 without hydrogens
 14 14  0  0  0  0            999 V2000
  -43.8560    6.0450   -3.2430   O 0  0  0  0  0  0  0  0  0  0  0  0
  -43.0400    5.9190   -2.3390   C 0  0  0  0  0  0  0  0  0  0  0  0
  -42.8800    7.0700   -1.4000   C 0  0  0  0  0  0  0  0  0  0  0  0
  -42.5780    8.3030   -2.2340   C 0  0  0  0  0  0  0  0  0  0  0  0
  -41.3400    8.0040   -3.5180   S 0  0  0  0  0  0  0  0  0  0  0  0
  -44.2000    7.2520   -0.6640   C 0  0  0  0  0  0  0  0  0  0  0  0
  -42.2760    4.8320   -2.1440   N 0  0  0  0  0  0  0  0  0  0  0  0
  -42.4090    3.6490   -2.9930   C 0  0  0  0  0  0  0  0  0  0  0  0
  -43.5810    2.7960   -2.5390   C 0  0  0  0  0  0  0  0  0  0  0  0
  -43.9340    1.7910   -3.2250   O 0  0  0  0  0  0  0  0  0  0  0  0
  -44.1750    3.1390   -1.4830   O 0  0  0  0  0  0  0  0  0  0  0  0
  -41.3010    4.6280   -1.0700   C 0  0  0  0  0  0  0  0  0  0  0  0
  -40.5130    3.3930   -1.4760   C 0  0  0  0  0  0  0  0  0  0  0  0
  -41.1110    2.8890   -2.7760   C 0  0  0  0  0  0  0  0  0  0  0  0
  1  2  2  0  0  0  0
  2  3  1  0  0  0  0
  2  7  1  0  0  0  0
  3  4  1  0  0  0  0
  3  6  1  0  0  0  0
  4  5  1  0  0  0  0
  7  8  1  0  0  0  0
  7 12  1  0  0  0  0
  8  9  1  0  0  0  0
  8 14  1  0  0  0  0
  9 10  2  0  0  0  0
  9 11  1  0  0  0  0
 12 13  1  0  0  0  0
 13 14  1  0  0  0  0
M  END
>  <InstanceId>
4EXS_X8Z_B_301

>  <ChemCompId>
X8Z

>  <PdbId>
4EXS

>  <ChainId>
B

>  <ResidueNumber>
301

>  <InsertionCode>


>  <Model>
1

>  <AltIds>


>  <MissingHeavyAtoms>
0

>  <ObservedFormula>
C9 N O3 S

>  <Name>
L-CAPTOPRIL

>  <SystematicName>
(2S)-1-[(2S)-2-methyl-3-sulfanyl-propanoyl]pyrrolidine-2-carboxylic acid

>  <Synonyms>


>  <Type>
NON-POLYMER

>  <Formula>
C9 H15 N O3 S

>  <MolecularWeight>
217.285

>  <ModifiedDate>
2011-06-04

>  <Parent>


>  <OneLetterCode>


>  <SubcomponentList>
PRO CC8

>  <AmbiguousFlag>
N

>  <InChI>
InChI=1S/C9H15NO3S/c1-6(5-14)8(11)10-4-2-3-7(10)9(12)13/h6-7,14H,2-5H2,1H3,(H,12,13)/t6-,7+/m1/s1

>  <InChIKey>
FAKRSMQSSFJEIM-RQJHMYQMSA-N

>  <SMILES>
C[C@H](CS)C(=O)N1CCC[C@H]1C(=O)O

$$$$
