5D6J_ATP_A_702
  RCSB PDB08022001023D
Coordinates from PDB:5D6J:A:702 Model:1 without hydrogens
 31 33  0  0  0  0            999 V2000
  -35.7240    3.2630   15.7010   P 0  0  0  0  0  0  0  0  0  0  0  0
  -36.4620    4.3620   14.9720   O 0  0  0  0  0  0  0  0  0  0  0  0
  -34.9710    3.6850   16.9420   O 0  0  0  0  0  0  0  0  0  0  0  0
  -36.6040    2.0510   15.9050   O 0  0  0  0  0  0  0  0  0  0  0  0
  -33.7510    3.7080   13.6470   P 0  0  0  0  0  0  0  0  0  0  0  0
  -32.3270    3.2290   13.5400   O 0  0  0  0  0  0  0  0  0  0  0  0
  -34.0370    5.1510   13.9700   O 0  0  0  0  0  0  0  0  0  0  0  0
  -34.5450    2.7670   14.7040   O 0  0  0  0  0  0  0  0  0  0  0  0
  -34.1830    3.7590   10.7780   P 0  0  0  0  0  0  0  0  0  0  0  0
  -33.8880    2.5450    9.9360   O 0  0  0  0  0  0  0  0  0  0  0  0
  -35.2980    4.6920   10.3670   O 0  0  0  0  0  0  0  0  0  0  0  0
  -34.5160    3.2670   12.2870   O 0  0  0  0  0  0  0  0  0  0  0  0
  -32.8100    4.5780   10.9120   O 0  0  0  0  0  0  0  0  0  0  0  0
  -32.7250    5.9770   10.6570   C 0  0  0  0  0  0  0  0  0  0  0  0
  -31.7270    6.5540   11.6630   C 0  0  0  0  0  0  0  0  0  0  0  0
  -30.3800    6.2550   11.2720   O 0  0  0  0  0  0  0  0  0  0  0  0
  -31.7540    8.0730   11.7800   C 0  0  0  0  0  0  0  0  0  0  0  0
  -32.8060    8.5550   12.6250   O 0  0  0  0  0  0  0  0  0  0  0  0
  -30.3880    8.3450   12.3680   C 0  0  0  0  0  0  0  0  0  0  0  0
  -30.4260    8.0950   13.7730   O 0  0  0  0  0  0  0  0  0  0  0  0
  -29.5000    7.2860   11.7380   C 0  0  0  0  0  0  0  0  0  0  0  0
  -28.8360    7.9640   10.6080   N 0  0  0  0  0  0  0  0  0  0  0  0
  -29.2360    7.9410    9.3190   C 0  0  0  0  0  0  0  0  0  0  0  0
  -28.4140    8.6930    8.5460   N 0  0  0  0  0  0  0  0  0  0  0  0
  -27.4690    9.2200    9.3510   C 0  0  0  0  0  0  0  0  0  0  0  0
  -26.3030   10.1160    9.1880   C 0  0  0  0  0  0  0  0  0  0  0  0
  -25.9580   10.6080    7.9740   N 0  0  0  0  0  0  0  0  0  0  0  0
  -25.5890   10.4180   10.2920   N 0  0  0  0  0  0  0  0  0  0  0  0
  -25.9160    9.9490   11.5120   C 0  0  0  0  0  0  0  0  0  0  0  0
  -26.9610    9.1400   11.7380   N 0  0  0  0  0  0  0  0  0  0  0  0
  -27.7580    8.7440   10.7130   C 0  0  0  0  0  0  0  0  0  0  0  0
  1  2  2  0  0  0  0
  1  3  1  0  0  0  0
  1  4  1  0  0  0  0
  1  8  1  0  0  0  0
  5  6  2  0  0  0  0
  5  7  1  0  0  0  0
  5  8  1  0  0  0  0
  5 12  1  0  0  0  0
  9 10  2  0  0  0  0
  9 11  1  0  0  0  0
  9 12  1  0  0  0  0
  9 13  1  0  0  0  0
 13 14  1  0  0  0  0
 14 15  1  0  0  0  0
 15 16  1  0  0  0  0
 15 17  1  0  0  0  0
 16 21  1  0  0  0  0
 17 18  1  0  0  0  0
 17 19  1  0  0  0  0
 19 20  1  0  0  0  0
 19 21  1  0  0  0  0
 21 22  1  0  0  0  0
 22 23  1  0  0  0  0
 22 31  1  0  0  0  0
 23 24  2  0  0  0  0
 24 25  1  0  0  0  0
 25 26  1  0  0  0  0
 25 31  2  0  0  0  0
 26 27  1  0  0  0  0
 26 28  2  0  0  0  0
 28 29  1  0  0  0  0
 29 30  2  0  0  0  0
 30 31  1  0  0  0  0
M  END
>  <InstanceId>
5D6J_ATP_A_702

>  <ChemCompId>
ATP

>  <PdbId>
5D6J

>  <ChainId>
A

>  <ResidueNumber>
702

>  <InsertionCode>


>  <Model>
1

>  <AltIds>


>  <MissingHeavyAtoms>
0

>  <ObservedFormula>
C10 N5 O13 P3

>  <Name>
ADENOSINE-5'-TRIPHOSPHATE

>  <SystematicName>
[[(2R,3S,4R,5R)-5-(6-aminopurin-9-yl)-3,4-dihydroxy-oxolan-2-yl]methoxy-hydroxy-phosphoryl] phosphono hydrogen phosphate

>  <Synonyms>


>  <Type>
NON-POLYMER

>  <Formula>
C10 H16 N5 O13 P3

>  <MolecularWeight>
507.181

>  <ModifiedDate>
2011-06-04

>  <Parent>


>  <OneLetterCode>


>  <SubcomponentList>


>  <AmbiguousFlag>
N

>  <InChI>
InChI=1S/C10H16N5O13P3/c11-8-5-9(13-2-12-8)15(3-14-5)10-7(17)6(16)4(26-10)1-25-30(21,22)28-31(23,24)27-29(18,19)20/h2-4,6-7,10,16-17H,1H2,(H,21,22)(H,23,24)(H2,11,12,13)(H2,18,19,20)/t4-,6-,7-,10-/m1/s1

>  <InChIKey>
ZKHQWZAMYRWXGA-KQYNXXCUSA-N

>  <SMILES>
c1nc(c2c(n1)n(cn2)[C@H]3[C@@H]([C@@H]([C@H](O3)CO[P@@](=O)(O)O[P@](=O)(O)OP(=O)(O)O)O)O)N

$$$$
