5TA2_78X_A_300
  RCSB PDB08022003003D
Coordinates from PDB:5TA2:A:300 Model:1 without hydrogens
 47 50  0  0  0  0            999 V2000
   14.9270   -5.4720   13.6050   N 0  0  0  0  0  0  0  0  0  0  0  0
   15.6280   -5.6400   14.8260   N 0  0  0  0  0  0  0  0  0  0  0  0
   17.5580   -4.5110   13.7670   C 0  0  0  0  0  0  0  0  0  0  0  0
   16.6970   -4.3090   12.5150   C 0  0  0  0  0  0  0  0  0  0  0  0
   15.2240   -4.2250   12.9030   C 0  0  0  0  0  0  0  0  0  0  0  0
   17.0850   -5.6980   14.6150   C 0  0  0  0  0  0  0  0  0  0  0  0
   10.4820  -10.6550   16.1900   C 0  0  0  0  0  0  0  0  0  0  0  0
   10.3010  -11.4490   17.4860   C 0  0  0  0  0  0  0  0  0  0  0  0
    8.8400  -11.9070   17.5820   C 0  0  0  0  0  0  0  0  0  0  0  0
   10.7130  -10.6510   18.7530   C 0  0  0  0  0  0  0  0  0  0  0  0
   12.0860   -9.9630   18.6080   C 0  0  0  0  0  0  0  0  0  0  0  0
   13.2740  -10.8220   19.0590   C 0  0  0  0  0  0  0  0  0  0  0  0
   17.7100   -5.6000   15.9940   C 0  0  0  0  0  0  0  0  0  0  0  0
   19.3250   -6.6120   17.4430   C 0  0  0  0  0  0  0  0  0  0  0  0
   18.3970   -7.1780   18.5110   C 0  0  0  0  0  0  0  0  0  0  0  0
   17.3060   -7.9950   18.1520   C 0  0  0  0  0  0  0  0  0  0  0  0
   16.4370   -8.5350   19.1090   C 0  0  0  0  0  0  0  0  0  0  0  0
   16.6740   -8.2460   20.4540   C 0  0  0  0  0  0  0  0  0  0  0  0
   17.7480   -7.4410   20.8380   C 0  0  0  0  0  0  0  0  0  0  0  0
   18.6100   -6.9130   19.8730   C 0  0  0  0  0  0  0  0  0  0  0  0
   15.3020   -9.3830   18.6960   C 0  0  0  0  0  0  0  0  0  0  0  0
   14.4120   -9.9530   19.5280   C 0  0  0  0  0  0  0  0  0  0  0  0
    9.9210   -8.9130   20.2110   C 0  0  0  0  0  0  0  0  0  0  0  0
   20.6270   -7.3890   17.2370   C 0  0  0  0  0  0  0  0  0  0  0  0
   10.9110  -11.1710   15.1620   O 0  0  0  0  0  0  0  0  0  0  0  0
   17.4280   -4.7640   16.8310   O 0  0  0  0  0  0  0  0  0  0  0  0
    9.7310   -9.6390   19.0020   O 0  0  0  0  0  0  0  0  0  0  0  0
   18.6340   -6.5860   16.1640   O 0  0  0  0  0  0  0  0  0  0  0  0
   12.5800   -8.1850   14.1450   N 0  0  0  0  0  0  0  0  0  0  0  0
   13.9630   -7.7010   14.1200   C 0  0  0  0  0  0  0  0  0  0  0  0
   14.9120   -8.7800   13.5640   C 0  0  0  0  0  0  0  0  0  0  0  0
   15.1970   -9.9540   14.4750   C 0  0  0  0  0  0  0  0  0  0  0  0
   14.1590  -10.8270   14.8430   C 0  0  0  0  0  0  0  0  0  0  0  0
   14.4060  -11.9130   15.6860   C 0  0  0  0  0  0  0  0  0  0  0  0
   16.4900  -10.1990   14.9640   C 0  0  0  0  0  0  0  0  0  0  0  0
   16.7200  -11.2950   15.7980   C 0  0  0  0  0  0  0  0  0  0  0  0
   15.6910  -12.1540   16.1620   C 0  0  0  0  0  0  0  0  0  0  0  0
   17.9840  -11.5170   16.2570   O 0  0  0  0  0  0  0  0  0  0  0  0
   14.0660   -6.4780   13.2100   C 0  0  0  0  0  0  0  0  0  0  0  0
   13.4320   -6.3930   12.1550   O 0  0  0  0  0  0  0  0  0  0  0  0
   10.1570   -9.3170   16.1570   N 0  0  0  0  0  0  0  0  0  0  0  0
   10.2960   -8.4150   15.0100   C 0  0  0  0  0  0  0  0  0  0  0  0
   11.6830   -7.7770   15.1070   C 0  0  0  0  0  0  0  0  0  0  0  0
   11.9450   -6.9880   16.0180   O 0  0  0  0  0  0  0  0  0  0  0  0
    9.1670   -7.3680   14.8900   C 0  0  0  0  0  0  0  0  0  0  0  0
    9.3730   -6.5590   13.6070   C 0  0  0  0  0  0  0  0  0  0  0  0
    7.7640   -7.9910   14.8550   C 0  0  0  0  0  0  0  0  0  0  0  0
 40 39  2  0  0  0  0
  4  5  1  0  0  0  0
  4  3  1  0  0  0  0
  5  1  1  0  0  0  0
 39  1  1  0  0  0  0
 39 30  1  0  0  0  0
 31 30  1  0  0  0  0
 31 32  1  0  0  0  0
  1  2  1  0  0  0  0
 46 45  1  0  0  0  0
  3  6  1  0  0  0  0
 30 29  1  0  0  0  0
 29 43  1  0  0  0  0
 32 33  2  0  0  0  0
 32 35  1  0  0  0  0
  6  2  1  0  0  0  0
  6 13  1  0  0  0  0
 33 34  1  0  0  0  0
 47 45  1  0  0  0  0
 45 42  1  0  0  0  0
 35 36  2  0  0  0  0
 42 43  1  0  0  0  0
 42 41  1  0  0  0  0
 43 44  2  0  0  0  0
 25  7  2  0  0  0  0
 34 37  2  0  0  0  0
 36 37  1  0  0  0  0
 36 38  1  0  0  0  0
 13 28  1  0  0  0  0
 13 26  2  0  0  0  0
 41  7  1  0  0  0  0
 28 14  1  0  0  0  0
  7  8  1  0  0  0  0
 24 14  1  0  0  0  0
 14 15  1  0  0  0  0
  8  9  1  0  0  0  0
  8 10  1  0  0  0  0
 16 15  2  0  0  0  0
 16 17  1  0  0  0  0
 15 20  1  0  0  0  0
 11 10  1  0  0  0  0
 11 12  1  0  0  0  0
 21 17  1  0  0  0  0
 21 22  2  0  0  0  0
 10 27  1  0  0  0  0
 27 23  1  0  0  0  0
 12 22  1  0  0  0  0
 17 18  2  0  0  0  0
 20 19  2  0  0  0  0
 18 19  1  0  0  0  0
M  END
>  <InstanceId>
5TA2_78X_A_300

>  <ChemCompId>
78X

>  <PdbId>
5TA2

>  <ChainId>
A

>  <ResidueNumber>
300

>  <InsertionCode>


>  <Model>
1

>  <AltIds>


>  <MissingHeavyAtoms>
0

>  <ObservedFormula>
C36 N4 O7

>  <Name>
11-[(3-hydroxyphenyl)methyl]-18-methoxy-2,17-dimethyl-14-(propan-2-yl)-3-oxa-9,12,15,28-tetraazatricyclo[21.3.1.1~5,9~]octacosa-1(27),21,23,25-tetraene-4,10,13,16-tetrone

>  <SystematicName>
(2~{R},5~{S},11~{S},14~{S},17~{R},18~{R},21~{E})-11-[(3-hydroxyphenyl)methyl]-18-methoxy-2,17-dimethyl-14-propan-2-yl-3-oxa-9,12,15,28-tetrazatricyclo[21.3.1.1^{5,9}]octacosa-1(27),21,23,25-tetraene-4,10,13,16-tetrone

>  <Synonyms>


>  <Type>
peptide-like

>  <Formula>
C36 H48 N4 O7

>  <MolecularWeight>
648.789

>  <ModifiedDate>
2017-01-20

>  <Parent>


>  <OneLetterCode>


>  <SubcomponentList>
78O MTY VAL

>  <AmbiguousFlag>
N

>  <InChI>
InChI=1S/C36H48N4O7/c1-22(2)32-34(43)37-30(21-26-13-9-15-28(41)20-26)35(44)40-18-10-16-29(39-40)36(45)47-24(4)27-14-8-12-25(19-27)11-6-7-17-31(46-5)23(3)33(42)38-32/h6,8-9,11-15,19-20,22-24,29-32,39,41H,7,10,16-18,21H2,1-5H3,(H,37,43)(H,38,42)/b11-6+/t23-,24-,29+,30+,31-,32+/m1/s1

>  <InChIKey>
SDVRVWXKFPHKSR-IBVKFTFISA-N

>  <SMILES>
C[C@@H]1c2cccc(c2)/C=C/CC[C@H]([C@H](C(=O)N[C@H](C(=O)N[C@H](C(=O)N3CCC[C@H](N3)C(=O)O1)Cc4cccc(c4)O)C(C)C)C)OC

$$$$
