5OOT_4K4_A_301
  RCSB PDB08022002433D
Coordinates from PDB:5OOT:A:301 Model:1 without hydrogens
 42 47  0  0  0  0            999 V2000
    4.5650   -4.8070   18.8250   C 0  0  0  0  0  0  0  0  0  0  0  0
    5.5930   -3.8280   18.9150   C 0  0  0  0  0  0  0  0  0  0  0  0
    5.3540   -2.6260   19.6050   C 0  0  0  0  0  0  0  0  0  0  0  0
    4.1580   -2.4810   20.1560   N 0  0  0  0  0  0  0  0  0  0  0  0
    3.3970   -4.6060   19.4100   N 0  0  0  0  0  0  0  0  0  0  0  0
   -3.1120  -11.2210   24.1140   C 0  0  0  0  0  0  0  0  0  0  0  0
   -2.9520  -12.7400   24.4020   C 0  0  0  0  0  0  0  0  0  0  0  0
   -4.2250  -13.4830   24.2090   N 0  0  0  0  0  0  0  0  0  0  0  0
   -4.0210  -14.9430   24.3350   C 0  0  0  0  0  0  0  0  0  0  0  0
   -4.9300  -13.1520   22.9370   C 0  0  0  0  0  0  0  0  0  0  0  0
   -5.0090  -11.6320   22.6380   C 0  0  0  0  0  0  0  0  0  0  0  0
   -3.6830  -11.0060   22.7390   N 0  0  0  0  0  0  0  0  0  0  0  0
   -3.5350   -9.7150   21.9960   C 0  0  0  0  0  0  0  0  0  0  0  0
   -4.7390   -8.7360   22.0750   C 0  0  0  0  0  0  0  0  0  0  0  0
   -4.5560   -7.5600   21.1550   C 0  0  0  0  0  0  0  0  0  0  0  0
   -2.3210   -8.9580   22.4890   C 0  0  0  0  0  0  0  0  0  0  0  0
   -1.9920   -7.7650   21.6130   C 0  0  0  0  0  0  0  0  0  0  0  0
   -3.1750   -6.9720   21.1440   N 0  0  0  0  0  0  0  0  0  0  0  0
   -2.9970   -5.6990   20.7050   C 0  0  0  0  0  0  0  0  0  0  0  0
   -3.9760   -4.9940   20.5200   O 0  0  0  0  0  0  0  0  0  0  0  0
   -1.7300   -5.0910   20.6340   C 0  0  0  0  0  0  0  0  0  0  0  0
   -1.3760   -4.2270   21.6560   C 0  0  0  0  0  0  0  0  0  0  0  0
   -0.1270   -3.6190   21.6340   C 0  0  0  0  0  0  0  0  0  0  0  0
    0.3510   -2.7540   22.5880   O 0  0  0  0  0  0  0  0  0  0  0  0
   -0.1200   -2.9400   23.9260   C 0  0  0  0  0  0  0  0  0  0  0  0
   -0.8250   -5.3330   19.6000   C 0  0  0  0  0  0  0  0  0  0  0  0
    0.4380   -4.7250   19.5730   C 0  0  0  0  0  0  0  0  0  0  0  0
    0.8010   -3.8470   20.6110   C 0  0  0  0  0  0  0  0  0  0  0  0
    2.0090   -3.1440   20.6980   N 0  0  0  0  0  0  0  0  0  0  0  0
    3.2190   -3.4500   20.0660   C 0  0  0  0  0  0  0  0  0  0  0  0
    4.7000   -5.9270   18.1610   N 0  0  0  0  0  0  0  0  0  0  0  0
    3.7930   -7.0180   18.5180   C 0  0  0  0  0  0  0  0  0  0  0  0
    5.0120   -5.8700   16.7780   C 0  0  0  0  0  0  0  0  0  0  0  0
    4.1130   -6.3790   15.8210   C 0  0  0  0  0  0  0  0  0  0  0  0
    4.4240   -6.3690   14.4690   C 0  0  0  0  0  0  0  0  0  0  0  0
    5.6200   -5.8130   14.0190   C 0  0  0  0  0  0  0  0  0  0  0  0
    6.5040   -5.2540   14.9300   C 0  0  0  0  0  0  0  0  0  0  0  0
    6.2050   -5.3090   16.3060   C 0  0  0  0  0  0  0  0  0  0  0  0
    7.1880   -4.7340   17.2420   C 0  0  0  0  0  0  0  0  0  0  0  0
    8.3730   -4.9180   16.9400   O 0  0  0  0  0  0  0  0  0  0  0  0
    6.8680   -4.0110   18.3550   N 0  0  0  0  0  0  0  0  0  0  0  0
    7.9890   -3.3770   19.0550   C 0  0  0  0  0  0  0  0  0  0  0  0
 16 17  1  0  0  0  0
 16 13  1  0  0  0  0
 17 18  1  0  0  0  0
 10 11  1  0  0  0  0
 10  8  1  0  0  0  0
 11 12  1  0  0  0  0
 20 19  2  0  0  0  0
  9  8  1  0  0  0  0
  8  7  1  0  0  0  0
 12 13  1  0  0  0  0
 12  6  1  0  0  0  0
 13 14  1  0  0  0  0
 18 19  1  0  0  0  0
 18 15  1  0  0  0  0
 19 21  1  0  0  0  0
 14 15  1  0  0  0  0
  7  6  1  0  0  0  0
 21 22  2  0  0  0  0
 21 26  1  0  0  0  0
 22 23  1  0  0  0  0
 26 27  2  0  0  0  0
 25 24  1  0  0  0  0
 23 24  1  0  0  0  0
 23 28  2  0  0  0  0
 27 28  1  0  0  0  0
 28 29  1  0  0  0  0
 29 30  1  0  0  0  0
 30  5  2  0  0  0  0
 30  4  1  0  0  0  0
  5  1  1  0  0  0  0
 34 35  2  0  0  0  0
 34 33  1  0  0  0  0
  4  3  2  0  0  0  0
 32 31  1  0  0  0  0
 35 36  1  0  0  0  0
  1 31  1  0  0  0  0
  1  2  2  0  0  0  0
 31 33  1  0  0  0  0
 33 38  2  0  0  0  0
  3  2  1  0  0  0  0
 36 37  2  0  0  0  0
  2 41  1  0  0  0  0
 38 37  1  0  0  0  0
 38 39  1  0  0  0  0
 41 39  1  0  0  0  0
 41 42  1  0  0  0  0
 39 40  2  0  0  0  0
M  END
>  <InstanceId>
5OOT_4K4_A_301

>  <ChemCompId>
4K4

>  <PdbId>
5OOT

>  <ChainId>
A

>  <ResidueNumber>
301

>  <InsertionCode>


>  <Model>
1

>  <AltIds>


>  <MissingHeavyAtoms>
0

>  <ObservedFormula>
C31 N8 O3

>  <Name>
2-[(2-methoxy-4-{[4-(4-methylpiperazin-1-yl)piperidin-1-yl]carbonyl}phenyl)amino]-5,11-dimethyl-5,11-dihydro-6H-pyrimido[4,5-b][1,4]benzodiazepin-6-one

>  <SystematicName>
2-[[2-methoxy-4-[4-(4-methylpiperazin-1-yl)piperidin-1-yl]carbonyl-phenyl]amino]-5,11-dimethyl-pyrimido[4,5-b][1,4]benzodiazepin-6-one

>  <Synonyms>


>  <Type>
NON-POLYMER

>  <Formula>
C31 H38 N8 O3

>  <MolecularWeight>
570.685

>  <ModifiedDate>
2015-05-01

>  <Parent>


>  <OneLetterCode>


>  <SubcomponentList>


>  <AmbiguousFlag>
N

>  <InChI>
InChI=1S/C31H38N8O3/c1-35-15-17-38(18-16-35)22-11-13-39(14-12-22)29(40)21-9-10-24(27(19-21)42-4)33-31-32-20-26-28(34-31)36(2)25-8-6-5-7-23(25)30(41)37(26)3/h5-10,19-20,22H,11-18H2,1-4H3,(H,32,33,34)

>  <InChIKey>
IWMCPJZTADUIFX-UHFFFAOYSA-N

>  <SMILES>
CN1CCN(CC1)C2CCN(CC2)C(=O)c3ccc(c(c3)OC)Nc4ncc5c(n4)N(c6ccccc6C(=O)N5C)C

$$$$
