2ZX7_ZX7_A_901
  RCSB PDB08012018293D
Coordinates from PDB:2ZX7:A:901 Model:1 without hydrogens
 23 25  0  0  0  0            999 V2000
   -3.2430   25.8470   24.3060   O 0  0  0  0  0  0  0  0  0  0  0  0
   -1.9120   26.3630   24.3570   C 0  0  0  0  0  0  0  0  0  0  0  0
   -1.7970   27.5880   23.4480   C 0  0  0  0  0  0  0  0  0  0  0  0
   -2.2300   27.2390   22.1340   O 0  0  0  0  0  0  0  0  0  0  0  0
   -0.3380   28.0440   23.4370   C 0  0  0  0  0  0  0  0  0  0  0  0
    0.4580   27.0320   22.8150   O 0  0  0  0  0  0  0  0  0  0  0  0
    0.1500   28.3030   24.8680   C 0  0  0  0  0  0  0  0  0  0  0  0
    1.6530   28.5840   24.8770   C 0  0  0  0  0  0  0  0  0  0  0  0
   -0.1070   27.1590   25.7590   N 0  0  0  0  0  0  0  0  0  0  0  0
   -1.5280   26.7730   25.7820   C 0  0  0  0  0  0  0  0  0  0  0  0
   -1.7330   25.5940   26.7360   C 0  0  0  0  0  0  0  0  0  0  0  0
   -1.6190   25.9790   28.1510   N 0  0  0  0  0  0  0  0  0  0  0  0
   -1.4190   25.0280   29.0620   C 0  0  0  0  0  0  0  0  0  0  0  0
   -1.2690   23.8370   28.7850   O 0  0  0  0  0  0  0  0  0  0  0  0
   -1.3280   25.4520   30.5310   C 0  0  0  0  0  0  0  0  0  0  0  0
   -1.7870   24.6740   31.5050   C 0  0  0  0  0  0  0  0  0  0  0  0
   -1.5800   25.3220   32.6470   C 0  0  0  0  0  0  0  0  0  0  0  0
   -1.9100   25.0050   33.9600   C 0  0  0  0  0  0  0  0  0  0  0  0
   -1.6150   25.9060   34.9770   C 0  0  0  0  0  0  0  0  0  0  0  0
   -0.9870   27.1070   34.6600   C 0  0  0  0  0  0  0  0  0  0  0  0
   -0.6540   27.4250   33.3460   C 0  0  0  0  0  0  0  0  0  0  0  0
   -0.9600   26.5270   32.3300   C 0  0  0  0  0  0  0  0  0  0  0  0
   -0.8230   26.5860   31.0080   N 0  0  0  0  0  0  0  0  0  0  0  0
  1  2  1  0  0  0  0
  2  3  1  0  0  0  0
  2 10  1  0  0  0  0
  3  4  1  0  0  0  0
  3  5  1  0  0  0  0
  5  6  1  0  0  0  0
  5  7  1  0  0  0  0
  7  8  1  0  0  0  0
  7  9  1  0  0  0  0
  9 10  1  0  0  0  0
 10 11  1  0  0  0  0
 11 12  1  0  0  0  0
 12 13  1  0  0  0  0
 13 14  2  0  0  0  0
 13 15  1  0  0  0  0
 15 16  2  0  0  0  0
 15 23  1  0  0  0  0
 16 17  1  0  0  0  0
 17 18  2  0  0  0  0
 17 22  1  0  0  0  0
 18 19  1  0  0  0  0
 19 20  2  0  0  0  0
 20 21  1  0  0  0  0
 21 22  2  0  0  0  0
 22 23  1  0  0  0  0
M  END
>  <InstanceId>
2ZX7_ZX7_A_901

>  <ChemCompId>
ZX7

>  <PdbId>
2ZX7

>  <ChainId>
A

>  <ResidueNumber>
901

>  <InsertionCode>


>  <Model>
1

>  <AltIds>


>  <MissingHeavyAtoms>
0

>  <ObservedFormula>
C16 N3 O4

>  <Name>
N-{[(2R,3R,4R,5R,6S)-3,4,5-trihydroxy-6-methylpiperidin-2-yl]methyl}-1H-indole-2-carboxamide

>  <SystematicName>
N-[[(2R,3R,4R,5R,6S)-3,4,5-trihydroxy-6-methyl-piperidin-2-yl]methyl]-1H-indole-2-carboxamide

>  <Synonyms>


>  <Type>
NON-POLYMER

>  <Formula>
C16 H21 N3 O4

>  <MolecularWeight>
319.356

>  <ModifiedDate>
2011-06-04

>  <Parent>


>  <OneLetterCode>


>  <SubcomponentList>


>  <AmbiguousFlag>
N

>  <InChI>
InChI=1S/C16H21N3O4/c1-8-13(20)15(22)14(21)12(18-8)7-17-16(23)11-6-9-4-2-3-5-10(9)19-11/h2-6,8,12-15,18-22H,7H2,1H3,(H,17,23)/t8-,12+,13+,14+,15+/m0/s1

>  <InChIKey>
VHAWVXPAMQXIGT-LMYWXWJPSA-N

>  <SMILES>
C[C@H]1[C@H]([C@H]([C@@H]([C@H](N1)CNC(=O)c2cc3ccccc3[nH]2)O)O)O

$$$$
