5HJQ_I3P_A_401
  RCSB PDB08022001373D
Coordinates from PDB:5HJQ:A:401 Model:1 without hydrogens
 24 24  0  0  0  0            999 V2000
   19.1540   11.1800  125.9630   C 0  0  0  0  0  0  0  0  0  0  0  0
   19.2720    9.6720  125.8250   C 0  0  0  0  0  0  0  0  0  0  0  0
   17.9440    9.0130  125.4490   C 0  0  0  0  0  0  0  0  0  0  0  0
   16.9600    9.8360  124.6170   C 0  0  0  0  0  0  0  0  0  0  0  0
   17.2820   11.2950  124.3090   C 0  0  0  0  0  0  0  0  0  0  0  0
   18.7130   11.7360  124.6450   C 0  0  0  0  0  0  0  0  0  0  0  0
   20.4070   11.8000  126.3070   O 0  0  0  0  0  0  0  0  0  0  0  0
   20.2070    9.3860  124.8270   O 0  0  0  0  0  0  0  0  0  0  0  0
   18.2260    7.8140  124.7320   O 0  0  0  0  0  0  0  0  0  0  0  0
   15.6940    9.8020  125.3050   O 0  0  0  0  0  0  0  0  0  0  0  0
   17.0520   11.5200  122.9390   O 0  0  0  0  0  0  0  0  0  0  0  0
   18.7790   13.1570  124.7080   O 0  0  0  0  0  0  0  0  0  0  0  0
   21.5070   11.0440  127.2020   P 0  0  0  0  0  0  0  0  0  0  0  0
   22.1480    9.9630  126.4060   O 0  0  0  0  0  0  0  0  0  0  0  0
   22.5700   12.0410  127.6060   O 0  0  0  0  0  0  0  0  0  0  0  0
   20.8620   10.4620  128.4740   O 0  0  0  0  0  0  0  0  0  0  0  0
   14.4870    8.9920  124.6210   P 0  0  0  0  0  0  0  0  0  0  0  0
   14.9950    8.2870  123.3860   O 0  0  0  0  0  0  0  0  0  0  0  0
   13.3810    9.9760  124.2350   O 0  0  0  0  0  0  0  0  0  0  0  0
   13.9280    7.9540  125.6230   O 0  0  0  0  0  0  0  0  0  0  0  0
   16.6930   12.9700  122.4410   P 0  0  0  0  0  0  0  0  0  0  0  0
   16.1550   12.9000  121.0590   O 0  0  0  0  0  0  0  0  0  0  0  0
   15.6470   13.5710  123.3450   O 0  0  0  0  0  0  0  0  0  0  0  0
   17.9200   13.8440  122.4460   O 0  0  0  0  0  0  0  0  0  0  0  0
  1  2  1  0  0  0  0
  1  6  1  0  0  0  0
  1  7  1  0  0  0  0
  2  3  1  0  0  0  0
  2  8  1  0  0  0  0
  3  4  1  0  0  0  0
  3  9  1  0  0  0  0
  4  5  1  0  0  0  0
  4 10  1  0  0  0  0
  5  6  1  0  0  0  0
  5 11  1  0  0  0  0
  6 12  1  0  0  0  0
  7 13  1  0  0  0  0
 10 17  1  0  0  0  0
 11 21  1  0  0  0  0
 13 14  2  0  0  0  0
 13 15  1  0  0  0  0
 13 16  1  0  0  0  0
 17 18  2  0  0  0  0
 17 19  1  0  0  0  0
 17 20  1  0  0  0  0
 21 22  2  0  0  0  0
 21 23  1  0  0  0  0
 21 24  1  0  0  0  0
M  END
>  <InstanceId>
5HJQ_I3P_A_401

>  <ChemCompId>
I3P

>  <PdbId>
5HJQ

>  <ChainId>
A

>  <ResidueNumber>
401

>  <InsertionCode>


>  <Model>
1

>  <AltIds>


>  <MissingHeavyAtoms>
0

>  <ObservedFormula>
C6 O15 P3

>  <Name>
D-MYO-INOSITOL-1,4,5-TRIPHOSPHATE

>  <SystematicName>
[(1R,2R,3S,4R,5R,6S)-2,3,6-trihydroxy-4,5-diphosphonooxy-cyclohexyl] dihydrogen phosphate

>  <Synonyms>


>  <Type>
NON-POLYMER

>  <Formula>
C6 H15 O15 P3

>  <MolecularWeight>
420.096

>  <ModifiedDate>
2011-06-04

>  <Parent>


>  <OneLetterCode>


>  <SubcomponentList>


>  <AmbiguousFlag>
N

>  <InChI>
InChI=1S/C6H15O15P3/c7-1-2(8)5(20-23(13,14)15)6(21-24(16,17)18)3(9)4(1)19-22(10,11)12/h1-9H,(H2,10,11,12)(H2,13,14,15)(H2,16,17,18)/t1-,2+,3+,4-,5-,6-/m1/s1

>  <InChIKey>
MMWCIQZXVOZEGG-XJTPDSDZSA-N

>  <SMILES>
[C@H]1([C@@H]([C@H]([C@@H]([C@H]([C@@H]1OP(=O)(O)O)O)OP(=O)(O)O)OP(=O)(O)O)O)O

$$$$
