3R5T_VBN_A_1
  RCSB PDB08012020193D
Coordinates from PDB:3R5T:A:1 Model:1 without hydrogens
 51 55  0  0  0  0            999 V2000
   24.5880   18.1150    4.4830   C 0  0  0  0  0  0  0  0  0  0  0  0
   23.5680   16.0490    5.5380   N 0  0  0  0  0  0  0  0  0  0  0  0
   23.7480   18.8300    4.9180   O 0  0  0  0  0  0  0  0  0  0  0  0
   24.4350   16.6000    4.5110   C 0  0  0  0  0  0  0  0  0  0  0  0
   23.7880   15.9960    3.2080   C 0  0  0  0  0  0  0  0  0  0  0  0
   31.6920   13.4670    5.9410   C 0  0  0  0  0  0  0  0  0  0  0  0
   26.6840   21.5390    8.2820   O 0  0  0  0  0  0  0  0  0  0  0  0
   28.4330   14.8660    3.0410   O 0  0  0  0  0  0  0  0  0  0  0  0
   24.5380   16.0830    9.6450   O 0  0  0  0  0  0  0  0  0  0  0  0
   19.8890   15.5960    9.2380   O 0  0  0  0  0  0  0  0  0  0  0  0
   23.7350   13.7270    7.8980   O 0  0  0  0  0  0  0  0  0  0  0  0
   25.0470   17.7270    7.6150   O 0  0  0  0  0  0  0  0  0  0  0  0
   22.1520   16.0780    7.8070   O 0  0  0  0  0  0  0  0  0  0  0  0
   25.9470   14.8430    6.7870   O 0  0  0  0  0  0  0  0  0  0  0  0
   25.7900   19.0580   11.5350   C 0  0  0  0  0  0  0  0  0  0  0  0
   18.7800   14.9170    5.7460   C 0  0  0  0  0  0  0  0  0  0  0  0
   25.9600   10.7690    7.5600   C 0  0  0  0  0  0  0  0  0  0  0  0
   25.2650   17.7460   11.2820   C 0  0  0  0  0  0  0  0  0  0  0  0
   18.7450   15.0430    7.1640   C 0  0  0  0  0  0  0  0  0  0  0  0
   24.8130   11.5520    7.9160   C 0  0  0  0  0  0  0  0  0  0  0  0
   26.0660   19.9600   10.4430   C 0  0  0  0  0  0  0  0  0  0  0  0
   19.9530   15.1990    5.0310   C 0  0  0  0  0  0  0  0  0  0  0  0
   27.0740   11.3680    6.9180   C 0  0  0  0  0  0  0  0  0  0  0  0
   26.3850   21.0030    4.4690   C 0  0  0  0  0  0  0  0  0  0  0  0
   27.9980   18.4930    2.6540   C 0  0  0  0  0  0  0  0  0  0  0  0
   25.5500   21.3430    5.7150   C 0  0  0  0  0  0  0  0  0  0  0  0
   29.1610   17.5450    2.2790   C 0  0  0  0  0  0  0  0  0  0  0  0
   25.6990   20.1030    3.4390   C 0  0  0  0  0  0  0  0  0  0  0  0
   26.7170   17.7870    3.1300   C 0  0  0  0  0  0  0  0  0  0  0  0
   25.4740   20.3190    6.7540   N 0  0  0  0  0  0  0  0  0  0  0  0
   29.6490   16.8290    3.4560   N 0  0  0  0  0  0  0  0  0  0  0  0
   28.4530   14.7520    6.0410   N 0  0  0  0  0  0  0  0  0  0  0  0
   29.3320   12.6080    5.6890   O 0  0  0  0  0  0  0  0  0  0  0  0
   26.0790   20.5530    8.0450   C 0  0  0  0  0  0  0  0  0  0  0  0
   29.1810   15.4720    3.7530   C 0  0  0  0  0  0  0  0  0  0  0  0
   22.2540   16.0610    4.9500   C 0  0  0  0  0  0  0  0  0  0  0  0
   25.0200   17.3400    9.9380   C 0  0  0  0  0  0  0  0  0  0  0  0
   19.8930   15.4610    7.8620   C 0  0  0  0  0  0  0  0  0  0  0  0
   24.8200   12.9130    7.6200   C 0  0  0  0  0  0  0  0  0  0  0  0
   25.2730   18.1910    8.9020   C 0  0  0  0  0  0  0  0  0  0  0  0
   21.0020   15.7270    7.1690   C 0  0  0  0  0  0  0  0  0  0  0  0
   25.8980   13.4850    7.0000   C 0  0  0  0  0  0  0  0  0  0  0  0
   25.8220   19.5570    9.1700   C 0  0  0  0  0  0  0  0  0  0  0  0
   21.0450   15.5700    5.7070   C 0  0  0  0  0  0  0  0  0  0  0  0
   27.0790   12.6870    6.6560   C 0  0  0  0  0  0  0  0  0  0  0  0
   30.3810   13.5390    5.1780   C 0  0  0  0  0  0  0  0  0  0  0  0
   28.1730   13.3600    5.8770   C 0  0  0  0  0  0  0  0  0  0  0  0
   29.5840   14.9360    5.1210   C 0  0  0  0  0  0  0  0  0  0  0  0
   25.7080   18.6660    3.7290   N 0  0  0  0  0  0  0  0  0  0  0  0
   22.3390   15.8810    3.5530   O 0  0  0  0  0  0  0  0  0  0  0  0
   24.4690   14.8080    2.5470   C 0  0  0  0  0  0  0  0  0  0  0  0
  1  3  2  0  0  0  0
  1  4  1  0  0  0  0
  1 49  1  0  0  0  0
  2  4  1  0  0  0  0
  2 36  2  0  0  0  0
  4  5  1  0  0  0  0
  5 50  1  0  0  0  0
  5 51  1  0  0  0  0
  6 46  1  0  0  0  0
  7 34  2  0  0  0  0
  8 35  2  0  0  0  0
  9 37  1  0  0  0  0
 10 38  1  0  0  0  0
 11 39  1  0  0  0  0
 12 40  1  0  0  0  0
 13 41  1  0  0  0  0
 14 42  1  0  0  0  0
 15 18  2  0  0  0  0
 15 21  1  0  0  0  0
 16 19  2  0  0  0  0
 16 22  1  0  0  0  0
 17 20  2  0  0  0  0
 17 23  1  0  0  0  0
 18 37  1  0  0  0  0
 19 38  1  0  0  0  0
 20 39  1  0  0  0  0
 21 43  2  0  0  0  0
 22 44  2  0  0  0  0
 23 45  2  0  0  0  0
 24 26  1  0  0  0  0
 24 28  1  0  0  0  0
 25 27  1  0  0  0  0
 25 29  1  0  0  0  0
 26 30  1  0  0  0  0
 27 31  1  0  0  0  0
 28 49  1  0  0  0  0
 29 49  1  0  0  0  0
 30 34  1  0  0  0  0
 31 35  1  0  0  0  0
 32 47  2  0  0  0  0
 32 48  1  0  0  0  0
 33 46  1  0  0  0  0
 33 47  1  0  0  0  0
 34 43  1  0  0  0  0
 35 48  1  0  0  0  0
 36 44  1  0  0  0  0
 36 50  1  0  0  0  0
 37 40  2  0  0  0  0
 38 41  2  0  0  0  0
 39 42  2  0  0  0  0
 40 43  1  0  0  0  0
 41 44  1  0  0  0  0
 42 45  1  0  0  0  0
 45 47  1  0  0  0  0
 46 48  1  0  0  0  0
M  END
>  <InstanceId>
3R5T_VBN_A_1

>  <ChemCompId>
VBN

>  <PdbId>
3R5T

>  <ChainId>
A

>  <ResidueNumber>
1

>  <InsertionCode>


>  <Model>
1

>  <AltIds>


>  <MissingHeavyAtoms>
0

>  <ObservedFormula>
C35 N5 O11

>  <Name>
(4S,5R)-N-{3-[(2,3-dihydroxybenzoyl)amino]propyl}-2-(2,3-dihydroxyphenyl)-N-[3-({[(4S,5R)-2-(2,3-dihydroxyphenyl)-5-met hyl-4,5-dihydro-1,3-oxazol-4-yl]carbonyl}amino)propyl]-5-methyl-4,5-dihydro-1,3-oxazole-4-carboxamide

>  <SystematicName>
(4S,5R)-2-(2,3-dihydroxyphenyl)-N-[3-[(2,3-dihydroxyphenyl)carbonylamino]propyl]-N-[3-[[(4S,5R)-2-(2,3-dihydroxyphenyl)-5-methyl-4,5-dihydro-1,3-oxazol-4-yl]carbonylamino]propyl]-5-methyl-4,5-dihydro-1,3-oxazole-4-carboxamide

>  <Synonyms>
vibriobactin

>  <Type>
NON-POLYMER

>  <Formula>
C35 H39 N5 O11

>  <MolecularWeight>
705.711

>  <ModifiedDate>
2020-06-17

>  <Parent>


>  <OneLetterCode>


>  <SubcomponentList>


>  <AmbiguousFlag>
N

>  <InChI>
InChI=1S/C35H39N5O11/c1-18-26(38-33(50-18)21-9-4-12-24(42)29(21)45)32(48)37-15-7-17-40(16-6-14-36-31(47)20-8-3-11-23(41)28(20)44)35(49)27-19(2)51-34(39-27)22-10-5-13-25(43)30(22)46/h3-5,8-13,18-19,26-27,41-46H,6-7,14-17H2,1-2H3,(H,36,47)(H,37,48)/t18-,19-,26+,27+/m1/s1

>  <InChIKey>
LLMKLMMXMOTPRU-QCOILQKOSA-N

>  <SMILES>
C[C@@H]1[C@H](N=C(O1)c2cccc(c2O)O)C(=O)NCCCN(CCCNC(=O)c3cccc(c3O)O)C(=O)[C@@H]4[C@H](OC(=N4)c5cccc(c5O)O)C

$$$$
