6GVZ_CHO_A_600
  RCSB PDB08022004523D
Coordinates from PDB:6GVZ:A:600 Model:1 without hydrogens
 32 35  0  0  0  0            999 V2000
   -9.5860  -53.9240   16.2260   C 0  0  0  0  0  0  0  0  0  0  0  0
  -10.0130  -55.2900   15.6780   C 0  0  0  0  0  0  0  0  0  0  0  0
   -9.0450  -55.7710   14.6110   C 0  0  0  0  0  0  0  0  0  0  0  0
   -9.4520  -57.0470   14.1320   O 0  0  0  0  0  0  0  0  0  0  0  0
   -8.9950  -54.7280   13.5160   C 0  0  0  0  0  0  0  0  0  0  0  0
   -8.5990  -53.3330   14.0110   C 0  0  0  0  0  0  0  0  0  0  0  0
   -8.5000  -52.3290   12.8550   C 0  0  0  0  0  0  0  0  0  0  0  0
   -9.8400  -51.8390   12.3120   C 0  0  0  0  0  0  0  0  0  0  0  0
  -10.4310  -52.8680   11.5120   O 0  0  0  0  0  0  0  0  0  0  0  0
  -10.7890  -51.3860   13.4330   C 0  0  0  0  0  0  0  0  0  0  0  0
  -10.8950  -52.4270   14.5630   C 0  0  0  0  0  0  0  0  0  0  0  0
   -9.4990  -52.8110   15.1630   C 0  0  0  0  0  0  0  0  0  0  0  0
  -11.9440  -52.0060   15.6060   C 0  0  0  0  0  0  0  0  0  0  0  0
  -13.2720  -51.4920   15.0490   C 0  0  0  0  0  0  0  0  0  0  0  0
  -13.1170  -50.4050   13.9730   C 0  0  0  0  0  0  0  0  0  0  0  0
  -12.1860  -51.0080   12.9280   C 0  0  0  0  0  0  0  0  0  0  0  0
  -12.3270  -50.0410   11.7330   C 0  0  0  0  0  0  0  0  0  0  0  0
  -13.7960  -49.5740   11.7770   C 0  0  0  0  0  0  0  0  0  0  0  0
  -14.3770  -50.0580   13.1160   C 0  0  0  0  0  0  0  0  0  0  0  0
  -12.5370  -49.1250   14.6150   C 0  0  0  0  0  0  0  0  0  0  0  0
   -8.8260  -51.6100   15.8530   C 0  0  0  0  0  0  0  0  0  0  0  0
  -15.4290  -49.0850   13.6980   C 0  0  0  0  0  0  0  0  0  0  0  0
  -16.0010  -49.5670   15.0310   C 0  0  0  0  0  0  0  0  0  0  0  0
  -16.5640  -48.7640   12.7090   C 0  0  0  0  0  0  0  0  0  0  0  0
  -17.3770  -49.9670   12.2630   C 0  0  0  0  0  0  0  0  0  0  0  0
  -18.6320  -49.6310   11.4830   C 0  0  0  0  0  0  0  0  0  0  0  0
  -19.4270  -48.7650   11.8440   O 0  0  0  0  0  0  0  0  0  0  0  0
  -18.8340  -50.3450   10.3860   N 0  0  0  0  0  0  0  0  0  0  0  0
  -19.9880  -50.1380    9.5370   C 0  0  0  0  0  0  0  0  0  0  0  0
  -21.2970  -50.5900   10.1400   C 0  0  0  0  0  0  0  0  0  0  0  0
  -22.3520  -50.2210    9.5840   O 0  0  0  0  0  0  0  0  0  0  0  0
  -21.2890  -51.3160   11.1570   O 0  0  0  0  0  0  0  0  0  0  0  0
  1  2  1  0  0  0  0
  1 12  1  0  0  0  0
  2  3  1  0  0  0  0
  3  4  1  0  0  0  0
  3  5  1  0  0  0  0
  5  6  1  0  0  0  0
  6  7  1  0  0  0  0
  6 12  1  0  0  0  0
  7  8  1  0  0  0  0
  8  9  1  0  0  0  0
  8 10  1  0  0  0  0
 10 11  1  0  0  0  0
 10 16  1  0  0  0  0
 11 12  1  0  0  0  0
 11 13  1  0  0  0  0
 12 21  1  0  0  0  0
 13 14  1  0  0  0  0
 14 15  1  0  0  0  0
 15 16  1  0  0  0  0
 15 19  1  0  0  0  0
 15 20  1  0  0  0  0
 16 17  1  0  0  0  0
 17 18  1  0  0  0  0
 18 19  1  0  0  0  0
 19 22  1  0  0  0  0
 22 23  1  0  0  0  0
 22 24  1  0  0  0  0
 24 25  1  0  0  0  0
 25 26  1  0  0  0  0
 26 27  2  0  0  0  0
 26 28  1  0  0  0  0
 28 29  1  0  0  0  0
 29 30  1  0  0  0  0
 30 31  2  0  0  0  0
 30 32  1  0  0  0  0
M  END
>  <InstanceId>
6GVZ_CHO_A_600

>  <ChemCompId>
CHO

>  <PdbId>
6GVZ

>  <ChainId>
A

>  <ResidueNumber>
600

>  <InsertionCode>


>  <Model>
1

>  <AltIds>


>  <MissingHeavyAtoms>
0

>  <ObservedFormula>
C26 N O5

>  <Name>
GLYCOCHENODEOXYCHOLIC ACID

>  <SystematicName>
2-[[(4R)-4-[(3R,5S,8R,9S,10S,13R,14S,17R)-10,13-dimethyl-3,7-bis(oxidanyl)-2,3,4,5,6,7,8,9,11,12,14,15,16,17-tetradecahydro-1H-cyclopenta[a]phenanthren-17-yl]pentanoyl]amino]ethanoic acid

>  <Synonyms>


>  <Type>
NON-POLYMER

>  <Formula>
C26 H43 N O5

>  <MolecularWeight>
449.623

>  <ModifiedDate>
2012-12-21

>  <Parent>


>  <OneLetterCode>


>  <SubcomponentList>


>  <AmbiguousFlag>
N

>  <InChI>
InChI=1S/C26H43NO5/c1-15(4-7-22(30)27-14-23(31)32)18-5-6-19-24-20(9-11-26(18,19)3)25(2)10-8-17(28)12-16(25)13-21(24)29/h15-21,24,28-29H,4-14H2,1-3H3,(H,27,30)(H,31,32)/t15-,16+,17-,18-,19+,20+,21-,24+,25+,26-/m1/s1

>  <InChIKey>
GHCZAUBVMUEKKP-GYPHWSFCSA-N

>  <SMILES>
C[C@H](CCC(=O)NCC(=O)O)[C@H]1CC[C@@H]2[C@@]1(CC[C@H]3[C@H]2C(C[C@H]4[C@@]3(CC[C@H](C4)O)C)O)C

$$$$
