2Q64_1UN_B_1001
  RCSB PDB08012017473D
Coordinates from PDB:2Q64:B:1001 Model:1 without hydrogens
 40 43  0  0  0  0            999 V2000
  -12.7120   13.4140   27.5270   C 0  0  0  0  0  0  0  0  0  0  0  0
  -12.7400   12.8180   28.9430   C 0  0  0  0  0  0  0  0  0  0  0  0
  -13.0090   11.3070   28.9180   C 0  0  0  0  0  0  0  0  0  0  0  0
  -12.0400   10.5670   27.9870   C 0  0  0  0  0  0  0  0  0  0  0  0
  -12.0550   11.1500   26.5740   C 0  0  0  0  0  0  0  0  0  0  0  0
  -11.7760   12.6500   26.5790   C 0  0  0  0  0  0  0  0  0  0  0  0
  -11.0040   15.0710   28.2510   N 0  0  0  0  0  0  0  0  0  0  0  0
  -10.9760   14.5520   29.6470   C 0  0  0  0  0  0  0  0  0  0  0  0
  -11.4550   13.0990   29.7340   C 0  0  0  0  0  0  0  0  0  0  0  0
  -12.3170   14.8880   27.5840   C 0  0  0  0  0  0  0  0  0  0  0  0
   -9.5900   14.6000   30.2480   C 0  0  0  0  0  0  0  0  0  0  0  0
   -9.5670   14.8170   31.5700   N 0  0  0  0  0  0  0  0  0  0  0  0
   -8.3910   15.0440   32.3940   C 0  0  0  0  0  0  0  0  0  0  0  0
   -7.5570   16.2100   31.8690   C 0  0  0  0  0  0  0  0  0  0  0  0
   -7.5780   13.7570   32.4420   C 0  0  0  0  0  0  0  0  0  0  0  0
   -8.8650   15.3860   33.8010   C 0  0  0  0  0  0  0  0  0  0  0  0
   -8.5910   14.4380   29.5530   O 0  0  0  0  0  0  0  0  0  0  0  0
  -10.6600   16.4990   28.2410   C 0  0  0  0  0  0  0  0  0  0  0  0
  -10.0340   16.8720   26.9020   C 0  0  0  0  0  0  0  0  0  0  0  0
   -8.5710   16.4600   26.7810   C 0  0  0  0  0  0  0  0  0  0  0  0
  -10.1750   18.2810   26.6860   O 0  0  0  0  0  0  0  0  0  0  0  0
   -8.1670   16.6610   25.4000   N 0  0  0  0  0  0  0  0  0  0  0  0
   -7.6560   17.2320   27.7320   C 0  0  0  0  0  0  0  0  0  0  0  0
   -7.7750   15.6870   24.5700   C 0  0  0  0  0  0  0  0  0  0  0  0
   -7.6990   14.5080   24.8930   O 0  0  0  0  0  0  0  0  0  0  0  0
   -7.4340   16.0920   23.1610   C 0  0  0  0  0  0  0  0  0  0  0  0
   -6.3780   16.9780   22.9050   C 0  0  0  0  0  0  0  0  0  0  0  0
   -6.0570   17.3780   21.6070   C 0  0  0  0  0  0  0  0  0  0  0  0
   -6.7770   16.9130   20.5050   C 0  0  0  0  0  0  0  0  0  0  0  0
   -7.8510   16.0310   20.6580   C 0  0  0  0  0  0  0  0  0  0  0  0
   -8.2340   15.5740   22.0150   C 0  0  0  0  0  0  0  0  0  0  0  0
   -8.5520   15.5740   19.5860   O 0  0  0  0  0  0  0  0  0  0  0  0
   -9.3970   14.6230   22.2020   C 0  0  0  0  0  0  0  0  0  0  0  0
   -6.0890   16.4370   27.8790   S 0  0  0  0  0  0  0  0  0  0  0  0
   -5.0620   17.1580   26.7250   C 0  0  0  0  0  0  0  0  0  0  0  0
   -3.8850   16.5060   26.3400   C 0  0  0  0  0  0  0  0  0  0  0  0
   -3.0400   17.0920   25.3930   C 0  0  0  0  0  0  0  0  0  0  0  0
   -3.3630   18.3260   24.8290   C 0  0  0  0  0  0  0  0  0  0  0  0
   -4.5340   18.9830   25.2090   C 0  0  0  0  0  0  0  0  0  0  0  0
   -5.3800   18.4000   26.1540   C 0  0  0  0  0  0  0  0  0  0  0  0
  1  2  1  0  0  0  0
  1  6  1  0  0  0  0
  1 10  1  0  0  0  0
  2  3  1  0  0  0  0
  2  9  1  0  0  0  0
  3  4  1  0  0  0  0
  4  5  1  0  0  0  0
  5  6  1  0  0  0  0
  7  8  1  0  0  0  0
  7 10  1  0  0  0  0
  7 18  1  0  0  0  0
  8  9  1  0  0  0  0
  8 11  1  0  0  0  0
 11 12  1  0  0  0  0
 11 17  2  0  0  0  0
 12 13  1  0  0  0  0
 13 14  1  0  0  0  0
 13 15  1  0  0  0  0
 13 16  1  0  0  0  0
 18 19  1  0  0  0  0
 19 20  1  0  0  0  0
 19 21  1  0  0  0  0
 20 22  1  0  0  0  0
 20 23  1  0  0  0  0
 22 24  1  0  0  0  0
 23 34  1  0  0  0  0
 24 25  2  0  0  0  0
 24 26  1  0  0  0  0
 26 27  2  0  0  0  0
 26 31  1  0  0  0  0
 27 28  1  0  0  0  0
 28 29  2  0  0  0  0
 29 30  1  0  0  0  0
 30 31  2  0  0  0  0
 30 32  1  0  0  0  0
 31 33  1  0  0  0  0
 34 35  1  0  0  0  0
 35 36  2  0  0  0  0
 35 40  1  0  0  0  0
 36 37  1  0  0  0  0
 37 38  2  0  0  0  0
 38 39  1  0  0  0  0
 39 40  2  0  0  0  0
M  END
>  <InstanceId>
2Q64_1UN_B_1001

>  <ChemCompId>
1UN

>  <PdbId>
2Q64

>  <ChainId>
B

>  <ResidueNumber>
1001

>  <InsertionCode>


>  <Model>
1

>  <AltIds>


>  <MissingHeavyAtoms>
0

>  <ObservedFormula>
C32 N3 O4 S

>  <Name>
2-[2-HYDROXY-3-(3-HYDROXY-2-METHYL-BENZOYLAMINO)-4-PHENYL SULFANYL-BUTYL]-DECAHYDRO-ISOQUINOLINE-3-CARBOXYLIC ACID TERT-BUTYLAMIDE

>  <SystematicName>
(2S,3S,4aS,8aS)-N-tert-butyl-2-[(2R,3R)-2-hydroxy-3-[(3-hydroxy-2-methyl-phenyl)carbonylamino]-4-phenylsulfanyl-butyl]-3,4,4a,5,6,7,8,8a-octahydro-1H-isoquinoline-3-carboxamide

>  <Synonyms>
NELFINAVIR MESYLATE AG1343

>  <Type>
NON-POLYMER

>  <Formula>
C32 H45 N3 O4 S

>  <MolecularWeight>
567.782

>  <ModifiedDate>
2011-06-04

>  <Parent>


>  <OneLetterCode>


>  <SubcomponentList>


>  <AmbiguousFlag>
N

>  <InChI>
InChI=1S/C32H45N3O4S/c1-21-25(15-10-16-28(21)36)30(38)33-26(20-40-24-13-6-5-7-14-24)29(37)19-35-18-23-12-9-8-11-22(23)17-27(35)31(39)34-32(2,3)4/h5-7,10,13-16,22-23,26-27,29,36-37H,8-9,11-12,17-20H2,1-4H3,(H,33,38)(H,34,39)/t22-,23+,26-,27-,29+/m0/s1

>  <InChIKey>
QAGYKUNXZHXKMR-HKWSIXNMSA-N

>  <SMILES>
Cc1c(cccc1O)C(=O)N[C@@H](CSc2ccccc2)[C@@H](C[N@@]3C[C@H]4CCCC[C@H]4C[C@H]3C(=O)NC(C)(C)C)O

$$$$
