6GZD_LCI_A_1018
  RCSB PDB08022004543D
Coordinates from PDB:6GZD:A:1018 Model:1 without hydrogens
 25 28  0  0  0  0            999 V2000
   -1.7800  -16.1370   -6.6640   F 0  0  0  0  0  0  0  0  0  0  0  0
   -2.6690  -16.1640   -7.6530   C 0  0  0  0  0  0  0  0  0  0  0  0
   -2.7570  -15.1090   -8.5400   C 0  0  0  0  0  0  0  0  0  0  0  0
   -3.6790  -15.1330   -9.5690   N 0  0  0  0  0  0  0  0  0  0  0  0
   -3.5140  -17.2470   -7.8070   C 0  0  0  0  0  0  0  0  0  0  0  0
   -4.4330  -17.2660   -8.8340   N 0  0  0  0  0  0  0  0  0  0  0  0
   -4.5210  -16.2160   -9.7180   C 0  0  0  0  0  0  0  0  0  0  0  0
   -5.4700  -16.2660  -10.7550   N 0  0  0  0  0  0  0  0  0  0  0  0
   -6.3100  -17.4670  -10.9270   C 0  0  0  0  0  0  0  0  0  0  0  0
   -7.5530  -17.0980  -11.7380   C 0  0  0  0  0  0  0  0  0  0  0  0
   -8.4840  -18.3110  -11.8600   C 0  0  0  0  0  0  0  0  0  0  0  0
   -5.5600  -18.6180  -11.6260   C 0  0  0  0  0  0  0  0  0  0  0  0
   -6.4820  -19.8430  -11.7130   C 0  0  0  0  0  0  0  0  0  0  0  0
   -7.7450  -19.4900  -12.5140   C 0  0  0  0  0  0  0  0  0  0  0  0
   -8.6410  -20.6540  -12.5510   N 0  3  0  0  0  0  0  0  0  0  0  0
   -3.4680  -18.4000   -6.8930   C 0  0  0  0  0  0  0  0  0  0  0  0
   -2.7290  -18.4480   -5.7350   C 0  0  0  0  0  0  0  0  0  0  0  0
   -2.9540  -19.6600   -5.1920   N 0  0  0  0  0  0  0  0  0  0  0  0
   -3.7440  -20.3160   -5.9190   N 0  0  0  0  0  0  0  0  0  0  0  0
   -4.1940  -21.6820   -5.6110   C 0  0  0  0  0  0  0  0  0  0  0  0
   -4.1080  -19.6040   -6.9950   C 0  0  0  0  0  0  0  0  0  0  0  0
   -5.0420  -20.0390   -8.1030   C 0  0  0  0  0  0  0  0  0  0  0  0
   -6.4940  -19.8180   -7.6860   C 0  0  0  0  0  0  0  0  0  0  0  0
   -7.3190  -21.0570   -8.0410   C 0  0  0  0  0  0  0  0  0  0  0  0
   -6.8560  -20.8330   -6.6020   C 0  0  0  0  0  0  0  0  0  0  0  0
 15 14  1  0  0  0  0
 14 11  1  0  0  0  0
 14 13  1  0  0  0  0
 11 10  1  0  0  0  0
 10  9  1  0  0  0  0
 13 12  1  0  0  0  0
 12  9  1  0  0  0  0
  9  8  1  0  0  0  0
  8  7  1  0  0  0  0
  7  4  2  0  0  0  0
  7  6  1  0  0  0  0
  4  3  1  0  0  0  0
  6  5  2  0  0  0  0
  3  2  2  0  0  0  0
 22 23  1  0  0  0  0
 22 21  1  0  0  0  0
 24 23  1  0  0  0  0
 24 25  1  0  0  0  0
  5  2  1  0  0  0  0
  5 16  1  0  0  0  0
 23 25  1  0  0  0  0
  2  1  1  0  0  0  0
 21 16  2  0  0  0  0
 21 19  1  0  0  0  0
 16 17  1  0  0  0  0
 19 20  1  0  0  0  0
 19 18  1  0  0  0  0
 17 18  2  0  0  0  0
M  CHG  1  15   1
M  END
>  <InstanceId>
6GZD_LCI_A_1018

>  <ChemCompId>
LCI

>  <PdbId>
6GZD

>  <ChainId>
A

>  <ResidueNumber>
1018

>  <InsertionCode>


>  <Model>
1

>  <AltIds>


>  <MissingHeavyAtoms>
0

>  <ObservedFormula>
C18 N6 F

>  <Name>
[4-[[4-[5-(cyclopropylmethyl)-1-methyl-pyrazol-4-yl]-5-fluoranyl-pyrimidin-2-yl]amino]cyclohexyl]azanium

>  <SystematicName>
[4-[[4-[5-(cyclopropylmethyl)-1-methyl-pyrazol-4-yl]-5-fluoranyl-pyrimidin-2-yl]amino]cyclohexyl]azanium

>  <Synonyms>


>  <Type>
NON-POLYMER

>  <Formula>
C18 H26 F N6

>  <MolecularWeight>
345.438

>  <ModifiedDate>
2018-08-24

>  <Parent>


>  <OneLetterCode>


>  <SubcomponentList>


>  <AmbiguousFlag>
N

>  <InChI>
InChI=1S/C18H25FN6/c1-25-16(8-11-2-3-11)14(9-22-25)17-15(19)10-21-18(24-17)23-13-6-4-12(20)5-7-13/h9-13H,2-8,20H2,1H3,(H,21,23,24)/p+1/t12-,13-

>  <InChIKey>
YSPIHUWHLMNFOV-JOCQHMNTSA-O

>  <SMILES>
Cn1c(c(cn1)c2c(cnc(n2)NC3CCC(CC3)[NH3+])F)CC4CC4

$$$$
