5ACY_9S3_A_1172
  RCSB PDB08022000453D
Coordinates from PDB:5ACY:A:1172 Model:1 without hydrogens
 34 38  0  0  0  0            999 V2000
   -3.7220  -10.0140   18.1450   O 0  0  0  0  0  0  0  0  0  0  0  0
   -3.3860   -8.9830   18.7270   C 0  0  0  0  0  0  0  0  0  0  0  0
   -4.1430   -7.6960   18.5380   C 0  0  0  0  0  0  0  0  0  0  0  0
   -2.2900   -9.0140   19.5920   N 0  0  0  0  0  0  0  0  0  0  0  0
   -1.5960  -10.3250   19.7300   C 0  0  0  0  0  0  0  0  0  0  0  0
   -0.5220  -10.4870   18.6640   C 0  0  0  0  0  0  0  0  0  0  0  0
   -1.7900   -7.8980   20.3300   C 0  0  0  0  0  0  0  0  0  0  0  0
   -1.4430   -8.0980   21.6670   C 0  0  0  0  0  0  0  0  0  0  0  0
   -1.6440   -9.5080   22.1470   C 0  0  0  0  0  0  0  0  0  0  0  0
   -1.1560   -9.7270   23.4960   N 0  0  0  0  0  0  0  0  0  0  0  0
   -1.8320   -9.3730   24.6610   C 0  0  0  0  0  0  0  0  0  0  0  0
   -1.1270   -9.2670   25.8540   C 0  0  0  0  0  0  0  0  0  0  0  0
   -1.7890   -8.9360   27.0250   C 0  0  0  0  0  0  0  0  0  0  0  0
   -3.1490   -8.7070   27.0160   C 0  0  0  0  0  0  0  0  0  0  0  0
   -3.8520   -8.8170   25.8370   C 0  0  0  0  0  0  0  0  0  0  0  0
   -3.2020   -9.1420   24.6610   C 0  0  0  0  0  0  0  0  0  0  0  0
   -1.0540  -10.5090   21.1570   C 0  0  0  0  0  0  0  0  0  0  0  0
   -1.6350   -6.6310   19.7700   C 0  0  0  0  0  0  0  0  0  0  0  0
   -1.1500   -5.5800   20.5210   C 0  0  0  0  0  0  0  0  0  0  0  0
   -0.7890   -5.7600   21.8600   C 0  0  0  0  0  0  0  0  0  0  0  0
   -0.9460   -7.0380   22.4170   C 0  0  0  0  0  0  0  0  0  0  0  0
   -0.2600   -4.5990   22.6890   C 0  0  0  0  0  0  0  0  0  0  0  0
   -0.7170   -3.3020   22.4790   C 0  0  0  0  0  0  0  0  0  0  0  0
   -0.2510   -2.2480   23.2430   C 0  0  0  0  0  0  0  0  0  0  0  0
    0.7080   -2.4500   24.2250   C 0  0  0  0  0  0  0  0  0  0  0  0
    1.1590   -3.7500   24.4410   C 0  0  0  0  0  0  0  0  0  0  0  0
    0.6920   -4.8040   23.6770   C 0  0  0  0  0  0  0  0  0  0  0  0
    1.2110   -1.3020   25.0740   C 0  0  0  0  0  0  0  0  0  0  0  0
    2.4510   -0.6670   24.6000   N 0  0  0  0  0  0  0  0  0  0  0  0
    2.9860    0.2450   25.6230   C 0  0  0  0  0  0  0  0  0  0  0  0
    4.2600    0.9410   25.1870   C 0  0  0  0  0  0  0  0  0  0  0  0
    5.3210   -0.0640   24.7850   C 0  0  0  0  0  0  0  0  0  0  0  0
    4.7690   -1.0400   23.7690   C 0  0  0  0  0  0  0  0  0  0  0  0
    3.4730   -1.6640   24.2560   C 0  0  0  0  0  0  0  0  0  0  0  0
  1  2  2  0  0  0  0
  2  3  1  0  0  0  0
  2  4  1  0  0  0  0
  4  5  1  0  0  0  0
  4  7  1  0  0  0  0
  5  6  1  0  0  0  0
  5 17  1  0  0  0  0
  7  8  1  0  0  0  0
  7 18  2  0  0  0  0
  8  9  1  0  0  0  0
  8 21  2  0  0  0  0
  9 10  1  0  0  0  0
  9 17  1  0  0  0  0
 10 11  1  0  0  0  0
 11 12  1  0  0  0  0
 11 16  2  0  0  0  0
 12 13  2  0  0  0  0
 13 14  1  0  0  0  0
 14 15  2  0  0  0  0
 15 16  1  0  0  0  0
 18 19  1  0  0  0  0
 19 20  2  0  0  0  0
 20 21  1  0  0  0  0
 20 22  1  0  0  0  0
 22 23  1  0  0  0  0
 22 27  2  0  0  0  0
 23 24  2  0  0  0  0
 24 25  1  0  0  0  0
 25 26  2  0  0  0  0
 25 28  1  0  0  0  0
 26 27  1  0  0  0  0
 28 29  1  0  0  0  0
 29 30  1  0  0  0  0
 29 34  1  0  0  0  0
 30 31  1  0  0  0  0
 31 32  1  0  0  0  0
 32 33  1  0  0  0  0
 33 34  1  0  0  0  0
M  END
>  <InstanceId>
5ACY_9S3_A_1172

>  <ChemCompId>
9S3

>  <PdbId>
5ACY

>  <ChainId>
A

>  <ResidueNumber>
1172

>  <InsertionCode>


>  <Model>
1

>  <AltIds>


>  <MissingHeavyAtoms>
0

>  <ObservedFormula>
C30 N3 O

>  <Name>
1-[(2S,4R)-2-methyl-4-(phenylamino)-6-[4-(piperidin-1-ylmethyl)phenyl]-3,4-dihydroquinolin-1(2H)-yl]ethanone

>  <SystematicName>
1-[(2S,4R)-2-methyl-4-phenylazanyl-6-[4-(piperidin-1-ylmethyl)phenyl]-3,4-dihydro-2H-quinolin-1-yl]ethanone

>  <Synonyms>


>  <Type>
non-polymer

>  <Formula>
C30 H35 N3 O

>  <MolecularWeight>
453.618

>  <ModifiedDate>
2014-10-03

>  <Parent>


>  <OneLetterCode>


>  <SubcomponentList>


>  <AmbiguousFlag>
N

>  <InChI>
InChI=1S/C30H35N3O/c1-22-19-29(31-27-9-5-3-6-10-27)28-20-26(15-16-30(28)33(22)23(2)34)25-13-11-24(12-14-25)21-32-17-7-4-8-18-32/h3,5-6,9-16,20,22,29,31H,4,7-8,17-19,21H2,1-2H3/t22-,29+/m0/s1

>  <InChIKey>
HHLPOWRWLBEWKR-PZGXJGMVSA-N

>  <SMILES>
C[C@H]1C[C@H](c2cc(ccc2N1C(=O)C)c3ccc(cc3)CN4CCCCC4)Nc5ccccc5

$$$$
