2C1P_FNZ_B_1215
  RCSB PDB08012016443D
Coordinates from PDB:2C1P:B:1215 Model:1 without hydrogens
 24 26  0  0  0  0            999 V2000
   53.9600   43.1820   66.3780   C 0  0  0  0  0  0  0  0  0  0  0  0
   53.6350   42.3480   65.1270   C 0  0  0  0  0  0  0  0  0  0  0  0
   54.7240   42.5050   64.0620   C 0  0  0  0  0  0  0  0  0  0  0  0
   54.2980   41.8520   62.7710   C 0  0  0  0  0  0  0  0  0  0  0  0
   53.5760   42.5690   61.8070   C 0  0  0  0  0  0  0  0  0  0  0  0
   53.1390   41.9590   60.6130   C 0  0  0  0  0  0  0  0  0  0  0  0
   53.4500   40.6260   60.3910   C 0  0  0  0  0  0  0  0  0  0  0  0
   54.1820   39.8900   61.3190   C 0  0  0  0  0  0  0  0  0  0  0  0
   54.5960   40.5110   62.5120   C 0  0  0  0  0  0  0  0  0  0  0  0
   55.3160   42.8550   67.0090   C 0  0  0  0  0  0  0  0  0  0  0  0
   55.7220   41.5310   67.2640   C 0  0  0  0  0  0  0  0  0  0  0  0
   56.9980   41.2330   67.7970   C 0  0  0  0  0  0  0  0  0  0  0  0
   57.8780   42.3020   68.0710   C 0  0  0  0  0  0  0  0  0  0  0  0
   57.4840   43.6350   67.8560   C 0  0  0  0  0  0  0  0  0  0  0  0
   56.2050   43.8850   67.3310   C 0  0  0  0  0  0  0  0  0  0  0  0
   59.2030   42.0370   68.5760   C 0  0  0  0  0  0  0  0  0  0  0  0
   50.8890   43.0990   68.0360   C 0  0  0  0  0  0  0  0  0  0  0  0
   52.8040   42.5920   68.6190   C 0  0  0  0  0  0  0  0  0  0  0  0
   53.5110   40.9660   65.4840   O 0  0  0  0  0  0  0  0  0  0  0  0
   53.0300   40.0210   59.2360   F 0  0  0  0  0  0  0  0  0  0  0  0
   60.2530   41.8330   68.9720   N 0  0  0  0  0  0  0  0  0  0  0  0
   52.8370   43.0320   67.3340   N 0  0  0  0  0  0  0  0  0  0  0  0
   51.5760   43.3620   66.9520   N 0  0  0  0  0  0  0  0  0  0  0  0
   51.5800   42.6540   69.0700   N 0  0  0  0  0  0  0  0  0  0  0  0
  1  2  1  0  0  0  0
  1 10  1  0  0  0  0
  1 22  1  0  0  0  0
  2  3  1  0  0  0  0
  2 19  1  0  0  0  0
  3  4  1  0  0  0  0
  4  5  2  0  0  0  0
  4  9  1  0  0  0  0
  5  6  1  0  0  0  0
  6  7  2  0  0  0  0
  7  8  1  0  0  0  0
  7 20  1  0  0  0  0
  8  9  2  0  0  0  0
 10 11  2  0  0  0  0
 10 15  1  0  0  0  0
 11 12  1  0  0  0  0
 12 13  2  0  0  0  0
 13 14  1  0  0  0  0
 13 16  1  0  0  0  0
 14 15  2  0  0  0  0
 16 21  3  0  0  0  0
 17 23  2  0  0  0  0
 17 24  1  0  0  0  0
 18 22  1  0  0  0  0
 18 24  2  0  0  0  0
 22 23  1  0  0  0  0
M  END
>  <InstanceId>
2C1P_FNZ_B_1215

>  <ChemCompId>
FNZ

>  <PdbId>
2C1P

>  <ChainId>
B

>  <ResidueNumber>
1215

>  <InsertionCode>


>  <Model>
1

>  <AltIds>


>  <MissingHeavyAtoms>
0

>  <ObservedFormula>
C18 N4 O F

>  <Name>
4-[(1S,2R)-3-(4-FLUOROPHENYL)-2-HYDROXY-1-(1H-1,2,4-TRIAZOL-1-YL)PROPYL]BENZONITRILE

>  <SystematicName>
4-[(1S,2R)-3-(4-fluorophenyl)-2-hydroxy-1-(1,2,4-triazol-1-yl)propyl]benzonitrile

>  <Synonyms>


>  <Type>
NON-POLYMER

>  <Formula>
C18 H15 F N4 O

>  <MolecularWeight>
322.336

>  <ModifiedDate>
2011-06-04

>  <Parent>


>  <OneLetterCode>


>  <SubcomponentList>


>  <AmbiguousFlag>
N

>  <InChI>
InChI=1S/C18H15FN4O/c19-16-7-3-13(4-8-16)9-17(24)18(23-12-21-11-22-23)15-5-1-14(10-20)2-6-15/h1-8,11-12,17-18,24H,9H2/t17-,18+/m1/s1

>  <InChIKey>
SLJZVZKQYSKYNV-MSOLQXFVSA-N

>  <SMILES>
c1cc(ccc1C[C@H]([C@H](c2ccc(cc2)C#N)n3cncn3)O)F

$$$$
