3VF5_031_B_201
  RCSB PDB08012020473D
Coordinates from PDB:3VF5:B:201 Model:1 without hydrogens
 42 46  0  0  0  0            999 V2000
   -7.4830  -14.1430   14.8480   O 0  0  0  0  0  0  0  0  0  0  0  0
   -6.1170  -14.1830   15.1610   C 0  0  0  0  0  0  0  0  0  0  0  0
   -8.1640  -15.2950   15.0740   C 0  0  0  0  0  0  0  0  0  0  0  0
   -7.5830  -16.4240   15.6180   C 0  0  0  0  0  0  0  0  0  0  0  0
   -8.3510  -17.5750   15.8200   C 0  0  0  0  0  0  0  0  0  0  0  0
   -9.6970  -17.5760   15.5000   C 0  0  0  0  0  0  0  0  0  0  0  0
  -10.2650  -16.4620   14.9230   C 0  0  0  0  0  0  0  0  0  0  0  0
   -9.4980  -15.3500   14.6450   C 0  0  0  0  0  0  0  0  0  0  0  0
  -10.7020  -18.9530   15.9230   S 0  0  0  0  0  0  0  0  0  0  0  0
  -11.7840  -19.0800   14.9430   O 0  0  0  0  0  0  0  0  0  0  0  0
   -9.7790  -20.0870   16.1050   O 0  0  0  0  0  0  0  0  0  0  0  0
  -11.4120  -18.6910   17.3820   N 0  0  0  0  0  0  0  0  0  0  0  0
  -10.5030  -18.3830   18.4780   C 0  0  0  0  0  0  0  0  0  0  0  0
  -10.9270  -18.8870   19.8380   C 0  0  0  0  0  0  0  0  0  0  0  0
  -11.2480  -20.3770   19.9530   C 0  0  0  0  0  0  0  0  0  0  0  0
   -9.8590  -18.6770   20.8450   N 0  0  0  0  0  0  0  0  0  0  0  0
   -9.2670  -19.8080   21.1650   C 0  0  0  0  0  0  0  0  0  0  0  0
   -8.3060  -19.9580   21.9310   O 0  0  0  0  0  0  0  0  0  0  0  0
   -9.9570  -20.9820   20.5220   C 0  0  0  0  0  0  0  0  0  0  0  0
  -12.6860  -17.9880   17.3760   C 0  0  0  0  0  0  0  0  0  0  0  0
  -13.8140  -18.8350   17.9380   C 0  0  0  0  0  0  0  0  0  0  0  0
  -15.0020  -18.0600   18.2110   O 0  0  0  0  0  0  0  0  0  0  0  0
  -14.2130  -19.9950   17.0390   C 0  0  0  0  0  0  0  0  0  0  0  0
  -15.0500  -20.9140   17.7710   N 0  0  0  0  0  0  0  0  0  0  0  0
  -14.6690  -22.1100   18.2210   C 0  0  0  0  0  0  0  0  0  0  0  0
  -13.4970  -22.5410   18.1100   O 0  0  0  0  0  0  0  0  0  0  0  0
  -15.6400  -22.7760   18.8550   O 0  0  0  0  0  0  0  0  0  0  0  0
  -15.4130  -25.0170   17.8640   C 0  0  0  0  0  0  0  0  0  0  0  0
  -15.3420  -24.1600   19.1360   C 0  0  0  0  0  0  0  0  0  0  0  0
  -16.5160  -24.6610   19.9720   C 0  0  0  0  0  0  0  0  0  0  0  0
  -17.5980  -25.0380   18.9690   C 0  0  0  0  0  0  0  0  0  0  0  0
  -18.3690  -23.9090   18.5460   O 0  0  0  0  0  0  0  0  0  0  0  0
  -18.2020  -23.6650   17.1420   C 0  0  0  0  0  0  0  0  0  0  0  0
  -17.6050  -24.9360   16.5780   C 0  0  0  0  0  0  0  0  0  0  0  0
  -16.8390  -25.5220   17.7330   C 0  0  0  0  0  0  0  0  0  0  0  0
  -14.9210  -19.5410   15.7500   C 0  0  0  0  0  0  0  0  0  0  0  0
  -16.5540  -21.2240   14.7600   C 0  0  0  0  0  0  0  0  0  0  0  0
  -16.9090  -22.3020   13.9770   C 0  0  0  0  0  0  0  0  0  0  0  0
  -15.8790  -23.0360   13.3660   C 0  0  0  0  0  0  0  0  0  0  0  0
  -14.5720  -22.5720   13.4510   C 0  0  0  0  0  0  0  0  0  0  0  0
  -14.2300  -21.4530   14.2220   C 0  0  0  0  0  0  0  0  0  0  0  0
  -15.2660  -20.7670   14.8990   C 0  0  0  0  0  0  0  0  0  0  0  0
  2  1  1  0  0  0  0
  3  1  1  0  0  0  0
  4  3  2  0  0  0  0
  3  8  1  0  0  0  0
  5  4  1  0  0  0  0
  5  6  2  0  0  0  0
  9  6  1  0  0  0  0
  6  7  1  0  0  0  0
  7  8  2  0  0  0  0
 11  9  2  0  0  0  0
 12  9  1  0  0  0  0
  9 10  2  0  0  0  0
 13 12  1  0  0  0  0
 12 20  1  0  0  0  0
 14 13  1  0  0  0  0
 16 14  1  0  0  0  0
 15 14  1  0  0  0  0
 19 15  1  0  0  0  0
 17 16  1  0  0  0  0
 18 17  2  0  0  0  0
 17 19  1  0  0  0  0
 21 20  1  0  0  0  0
 21 23  1  0  0  0  0
 21 22  1  0  0  0  0
 24 23  1  0  0  0  0
 23 36  1  0  0  0  0
 25 24  1  0  0  0  0
 26 25  2  0  0  0  0
 27 25  1  0  0  0  0
 29 27  1  0  0  0  0
 29 28  1  0  0  0  0
 28 35  1  0  0  0  0
 30 29  1  0  0  0  0
 30 31  1  0  0  0  0
 31 35  1  0  0  0  0
 31 32  1  0  0  0  0
 32 33  1  0  0  0  0
 34 33  1  0  0  0  0
 35 34  1  0  0  0  0
 36 42  1  0  0  0  0
 42 37  2  0  0  0  0
 37 38  1  0  0  0  0
 39 38  2  0  0  0  0
 40 39  1  0  0  0  0
 41 40  2  0  0  0  0
 41 42  1  0  0  0  0
M  END
>  <InstanceId>
3VF5_031_B_201

>  <ChemCompId>
031

>  <PdbId>
3VF5

>  <ChainId>
B

>  <ResidueNumber>
201

>  <InsertionCode>


>  <Model>
1

>  <AltIds>


>  <MissingHeavyAtoms>
0

>  <ObservedFormula>
C30 N3 O8 S

>  <Name>
(3aS,5R,6aR)-hexahydro-2H-cyclopenta[b]furan-5-yl [(1S,2R)-1-benzyl-2-hydroxy-3-([(4-methoxyphenyl)sulfonyl]{[(2R)-5-oxopyrrolidin-2-yl]methyl}amino)propyl]carbamate

>  <SystematicName>
[(3aS,5R,6aR)-3,3a,4,5,6,6a-hexahydro-2H-cyclopenta[b]furan-5-yl] N-[(2S,3R)-3-hydroxy-4-[(4-methoxyphenyl)sulfonyl-[[(2R)-5-oxopyrrolidin-2-yl]methyl]amino]-1-phenyl-butan-2-yl]carbamate

>  <Synonyms>


>  <Type>
NON-POLYMER

>  <Formula>
C30 H39 N3 O8 S

>  <MolecularWeight>
601.711

>  <ModifiedDate>
2011-06-04

>  <Parent>


>  <OneLetterCode>


>  <SubcomponentList>


>  <AmbiguousFlag>
N

>  <InChI>
InChI=1S/C30H39N3O8S/c1-39-23-8-10-25(11-9-23)42(37,38)33(18-22-7-12-29(35)31-22)19-27(34)26(15-20-5-3-2-4-6-20)32-30(36)41-24-16-21-13-14-40-28(21)17-24/h2-6,8-11,21-22,24,26-28,34H,7,12-19H2,1H3,(H,31,35)(H,32,36)/t21-,22+,24+,26-,27+,28+/m0/s1

>  <InChIKey>
RPIALZPTIFOQGC-CXLNPQPMSA-N

>  <SMILES>
COc1ccc(cc1)S(=O)(=O)[N@@](C[C@H]2CCC(=O)N2)C[C@H]([C@H](Cc3ccccc3)NC(=O)O[C@@H]4C[C@@H]5CCO[C@@H]5C4)O

$$$$
