4U6Z_Q07_A_404
  RCSB PDB08012023293D
Coordinates from PDB:4U6Z:A:404 Model:1 without hydrogens
 11 10  0  0  0  0            999 V2000
   21.8290   -2.2160   12.0950   O 0  0  0  0  0  0  0  0  0  0  0  0
   21.2380   -2.4930   10.7310   P 0  0  0  0  0  0  0  0  0  0  0  0
   19.8900   -3.2450   10.9220   O 0  0  0  0  0  0  0  0  0  0  0  0
   21.0290   -1.3930    9.9600   O 0  0  0  0  0  0  0  0  0  0  0  0
   22.3770   -3.6270    9.8660   C 0  0  0  0  0  0  0  0  0  0  0  0
   23.5770   -2.9960    9.3980   N 0  0  0  0  0  0  0  0  0  0  0  0
   22.7210   -4.8040   10.7450   C 0  0  0  0  0  0  0  0  0  0  0  0
   23.7300   -4.4590   11.7990   C 0  0  0  0  0  0  0  0  0  0  0  0
   23.1100   -6.0400    9.9860   C 0  0  0  0  0  0  0  0  0  0  0  0
   23.0310   -7.2790   10.8580   C 0  0  0  0  0  0  0  0  0  0  0  0
   23.0750   -8.5750   10.0950   C 0  0  0  0  0  0  0  0  0  0  0  0
  6  5  1  0  0  0  0
  9 10  1  0  0  0  0
  9  7  1  0  0  0  0
  5  7  1  0  0  0  0
  5  2  1  0  0  0  0
  4  2  2  0  0  0  0
 11 10  1  0  0  0  0
  7  8  1  0  0  0  0
  2  3  1  0  0  0  0
  2  1  1  0  0  0  0
M  END
>  <InstanceId>
4U6Z_Q07_A_404

>  <ChemCompId>
Q07

>  <PdbId>
4U6Z

>  <ChainId>
A

>  <ResidueNumber>
404

>  <InsertionCode>


>  <Model>
1

>  <AltIds>


>  <MissingHeavyAtoms>
0

>  <ObservedFormula>
C6 N O3 P

>  <Name>
[(1R,2S)-1-amino-2-methylpentyl]phosphonic acid

>  <SystematicName>
[(1R,2S)-1-azanyl-2-methyl-pentyl]phosphonic acid

>  <Synonyms>


>  <Type>
NON-POLYMER

>  <Formula>
C6 H16 N O3 P

>  <MolecularWeight>
181.17

>  <ModifiedDate>
2015-03-20

>  <Parent>


>  <OneLetterCode>


>  <SubcomponentList>


>  <AmbiguousFlag>
N

>  <InChI>
InChI=1S/C6H16NO3P/c1-3-4-5(2)6(7)11(8,9)10/h5-6H,3-4,7H2,1-2H3,(H2,8,9,10)/t5-,6+/m0/s1

>  <InChIKey>
AMCULSZUZIHVRH-NTSWFWBYSA-N

>  <SMILES>
CCC[C@H](C)[C@H](N)P(=O)(O)O

$$$$
