3GS6_NP6_A_341
  RCSB PDB08012019083D
Coordinates from PDB:3GS6:A:341 Model:1 without hydrogens
 27 28  0  0  0  0            999 V2000
  -19.5010   -7.6780    3.4400   C 0  0  0  0  0  0  0  0  0  0  0  0
  -19.4260   -6.7590    4.6550   C 0  0  0  0  0  0  0  0  0  0  0  0
  -17.9790   -6.6000    5.1100   C 0  0  0  0  0  0  0  0  0  0  0  0
  -17.5060   -7.9370    5.6470   C 0  0  0  0  0  0  0  0  0  0  0  0
  -18.2410   -8.6120    6.3500   O 0  0  0  0  0  0  0  0  0  0  0  0
  -16.2770   -8.3270    5.3100   N 0  0  0  0  0  0  0  0  0  0  0  0
  -15.7340   -9.5900    5.7870   C 0  0  0  0  0  0  0  0  0  0  0  0
  -14.5870   -9.2670    6.7610   C 0  0  0  0  0  0  0  0  0  0  0  0
  -15.1110   -8.5930    7.9270   O 0  0  0  0  0  0  0  0  0  0  0  0
  -13.8670  -10.5790    7.1200   C 0  0  0  0  0  0  0  0  0  0  0  0
  -12.9260  -10.4240    8.1970   O 0  0  0  0  0  0  0  0  0  0  0  0
  -13.1640  -11.1530    5.8830   C 0  0  0  0  0  0  0  0  0  0  0  0
  -12.5230  -12.5040    6.1410   C 0  0  0  0  0  0  0  0  0  0  0  0
  -13.2260  -13.5000    6.3110   O 0  0  0  0  0  0  0  0  0  0  0  0
  -14.0550  -11.3110    4.7740   O 0  0  0  0  0  0  0  0  0  0  0  0
  -15.2550  -10.4880    4.6720   C 0  0  0  0  0  0  0  0  0  0  0  0
  -16.0060  -10.6100    3.6510   N 0  0  0  0  0  0  0  0  0  0  0  0
  -15.6880  -11.3950    2.7110   O 0  0  0  0  0  0  0  0  0  0  0  0
  -16.4370  -11.5020    1.4510   C 0  0  0  0  0  0  0  0  0  0  0  0
  -17.4930  -10.8880    1.3230   O 0  0  0  0  0  0  0  0  0  0  0  0
  -15.9130  -12.2910    0.4990   N 0  0  0  0  0  0  0  0  0  0  0  0
  -16.4570  -12.5110   -0.7840   C 0  0  0  0  0  0  0  0  0  0  0  0
  -15.8770  -13.4880   -1.6080   C 0  0  0  0  0  0  0  0  0  0  0  0
  -16.3760  -13.7280   -2.8900   C 0  0  0  0  0  0  0  0  0  0  0  0
  -17.4540  -12.9780   -3.3610   C 0  0  0  0  0  0  0  0  0  0  0  0
  -18.0280  -11.9940   -2.5440   C 0  0  0  0  0  0  0  0  0  0  0  0
  -17.5330  -11.7540   -1.2600   C 0  0  0  0  0  0  0  0  0  0  0  0
  1  2  1  0  0  0  0
  2  3  1  0  0  0  0
  3  4  1  0  0  0  0
  4  5  2  0  0  0  0
  4  6  1  0  0  0  0
  6  7  1  0  0  0  0
  7  8  1  0  0  0  0
  7 16  1  0  0  0  0
  8  9  1  0  0  0  0
  8 10  1  0  0  0  0
 10 11  1  0  0  0  0
 10 12  1  0  0  0  0
 12 13  1  0  0  0  0
 12 15  1  0  0  0  0
 13 14  1  0  0  0  0
 15 16  1  0  0  0  0
 16 17  2  0  0  0  0
 17 18  1  0  0  0  0
 18 19  1  0  0  0  0
 19 20  2  0  0  0  0
 19 21  1  0  0  0  0
 21 22  1  0  0  0  0
 22 23  1  0  0  0  0
 22 27  2  0  0  0  0
 23 24  2  0  0  0  0
 24 25  1  0  0  0  0
 25 26  2  0  0  0  0
 26 27  1  0  0  0  0
M  END
>  <InstanceId>
3GS6_NP6_A_341

>  <ChemCompId>
NP6

>  <PdbId>
3GS6

>  <ChainId>
A

>  <ResidueNumber>
341

>  <InsertionCode>


>  <Model>
1

>  <AltIds>


>  <MissingHeavyAtoms>
0

>  <ObservedFormula>
C17 N3 O7

>  <Name>
[[(3R,4R,5S,6R)-3-(BUTANOYLAMINO)-4,5-DIHYDROXY-6-(HYDROXYMETHYL)OXAN-2-YLIDENE]AMINO] N-PHENYLCARBAMATE

>  <SystematicName>
[[(3R,4R,5S,6R)-3-(butanoylamino)-4,5-dihydroxy-6-(hydroxymethyl)oxan-2-ylidene]amino] N-phenylcarbamate

>  <Synonyms>


>  <Type>
non-polymer

>  <Formula>
C17 H23 N3 O7

>  <MolecularWeight>
381.38

>  <ModifiedDate>
2011-06-04

>  <Parent>


>  <OneLetterCode>


>  <SubcomponentList>


>  <AmbiguousFlag>
N

>  <InChI>
InChI=1S/C17H23N3O7/c1-2-6-12(22)19-13-15(24)14(23)11(9-21)26-16(13)20-27-17(25)18-10-7-4-3-5-8-10/h3-5,7-8,11,13-15,21,23-24H,2,6,9H2,1H3,(H,18,25)(H,19,22)/b20-16-/t11-,13-,14-,15-/m1/s1

>  <InChIKey>
ITVRELFVFCOUMV-ZVZWZHPPSA-N

>  <SMILES>
CCCC(=O)N[C@@H]\1[C@H]([C@@H]([C@H](O/C1=N\OC(=O)Nc2ccccc2)CO)O)O

$$$$
