1NJD_UMP_A_317
  RCSB PDB08012015333D
Coordinates from PDB:1NJD:A:317 Model:1 without hydrogens
 20 21  0  0  0  0            999 V2000
   14.3370   48.9220  -53.7510   N 0  0  0  0  0  0  0  0  0  0  0  0
   13.7210   47.7480  -53.2950   C 0  0  0  0  0  0  0  0  0  0  0  0
   13.1870   47.7900  -52.0450   N 0  0  0  0  0  0  0  0  0  0  0  0
   13.1950   48.8840  -51.2070   C 0  0  0  0  0  0  0  0  0  0  0  0
   13.8270   50.0850  -51.7730   C 0  0  0  0  0  0  0  0  0  0  0  0
   14.3800   50.0490  -53.0580   C 0  0  0  0  0  0  0  0  0  0  0  0
   13.5560   46.7160  -53.9220   O 0  0  0  0  0  0  0  0  0  0  0  0
   12.7370   48.7600  -50.0710   O 0  0  0  0  0  0  0  0  0  0  0  0
   15.2860   48.8570  -54.8720   C 0  0  0  0  0  0  0  0  0  0  0  0
   14.9090   48.3410  -56.2530   C 0  0  0  0  0  0  0  0  0  0  0  0
   16.2430   48.4610  -56.9730   C 0  0  0  0  0  0  0  0  0  0  0  0
   16.8010   49.8430  -56.6170   C 0  0  0  0  0  0  0  0  0  0  0  0
   17.0720   47.4190  -56.4130   O 0  0  0  0  0  0  0  0  0  0  0  0
   16.2780   49.9550  -55.1960   O 0  0  0  0  0  0  0  0  0  0  0  0
   16.1420   50.9350  -57.4670   C 0  0  0  0  0  0  0  0  0  0  0  0
   16.5150   50.8640  -58.8880   O 0  0  0  0  0  0  0  0  0  0  0  0
   15.7870   51.8270  -59.9230   P 0  0  0  0  0  0  0  0  0  0  0  0
   14.7100   51.0060  -60.4670   O 0  0  0  0  0  0  0  0  0  0  0  0
   15.1840   53.0580  -59.4170   O 0  0  0  0  0  0  0  0  0  0  0  0
   16.7390   52.1750  -60.9980   O 0  0  0  0  0  0  0  0  0  0  0  0
  1  2  1  0  0  0  0
  1  6  1  0  0  0  0
  1  9  1  0  0  0  0
  2  3  1  0  0  0  0
  2  7  2  0  0  0  0
  3  4  1  0  0  0  0
  4  5  1  0  0  0  0
  4  8  2  0  0  0  0
  5  6  2  0  0  0  0
  9 10  1  0  0  0  0
  9 14  1  0  0  0  0
 10 11  1  0  0  0  0
 11 12  1  0  0  0  0
 11 13  1  0  0  0  0
 12 14  1  0  0  0  0
 12 15  1  0  0  0  0
 15 16  1  0  0  0  0
 16 17  1  0  0  0  0
 17 18  2  0  0  0  0
 17 19  1  0  0  0  0
 17 20  1  0  0  0  0
M  END
>  <InstanceId>
1NJD_UMP_A_317

>  <ChemCompId>
UMP

>  <PdbId>
1NJD

>  <ChainId>
A

>  <ResidueNumber>
317

>  <InsertionCode>


>  <Model>
1

>  <AltIds>


>  <MissingHeavyAtoms>
0

>  <ObservedFormula>
C9 N2 O8 P

>  <Name>
2'-DEOXYURIDINE 5'-MONOPHOSPHATE

>  <SystematicName>
[(2R,3S,5R)-5-[2,4-bis(oxidanylidene)pyrimidin-1-yl]-3-oxidanyl-oxolan-2-yl]methyl dihydrogen phosphate

>  <Synonyms>
DUMP

>  <Type>
NON-POLYMER

>  <Formula>
C9 H13 N2 O8 P

>  <MolecularWeight>
308.182

>  <ModifiedDate>
2020-06-17

>  <Parent>


>  <OneLetterCode>
U

>  <SubcomponentList>


>  <AmbiguousFlag>
N

>  <InChI>
InChI=1S/C9H13N2O8P/c12-5-3-8(11-2-1-7(13)10-9(11)14)19-6(5)4-18-20(15,16)17/h1-2,5-6,8,12H,3-4H2,(H,10,13,14)(H2,15,16,17)/t5-,6+,8+/m0/s1

>  <InChIKey>
JSRLJPSBLDHEIO-SHYZEUOFSA-N

>  <SMILES>
C1[C@@H]([C@H](O[C@H]1N2C=CC(=O)NC2=O)COP(=O)(O)O)O

$$$$
