4AQ4_G3P_A_1415
  RCSB PDB08012021083D
Coordinates from PDB:4AQ4:A:1415 Model:1 without hydrogens
 10  9  0  0  0  0            999 V2000
   44.8840   26.3180  179.1960   O 0  0  0  0  0  0  0  0  0  0  0  0
   44.4610   25.0030  178.9720   C 0  0  0  0  0  0  0  0  0  0  0  0
   42.9800   24.7700  178.8740   C 0  0  0  0  0  0  0  0  0  0  0  0
   42.4730   25.4150  177.7500   O 0  0  0  0  0  0  0  0  0  0  0  0
   42.6810   23.3030  178.7210   C 0  0  0  0  0  0  0  0  0  0  0  0
   43.3010   22.6640  177.6380   O 0  0  0  0  0  0  0  0  0  0  0  0
   42.6290   20.3520  178.2570   O 0  0  0  0  0  0  0  0  0  0  0  0
   43.7830   20.7740  176.1200   O 0  0  0  0  0  0  0  0  0  0  0  0
   41.4050   21.5210  176.4430   O 0  0  0  0  0  0  0  0  0  0  0  0
   42.7500   21.3120  177.1010   P 0  0  0  0  0  0  0  0  0  0  0  0
  1  2  1  0  0  0  0
  2  3  1  0  0  0  0
  3  4  1  0  0  0  0
  3  5  1  0  0  0  0
  5  6  1  0  0  0  0
  6 10  1  0  0  0  0
  7 10  1  0  0  0  0
  8 10  2  0  0  0  0
  9 10  1  0  0  0  0
M  END
>  <InstanceId>
4AQ4_G3P_A_1415

>  <ChemCompId>
G3P

>  <PdbId>
4AQ4

>  <ChainId>
A

>  <ResidueNumber>
1415

>  <InsertionCode>


>  <Model>
1

>  <AltIds>


>  <MissingHeavyAtoms>
0

>  <ObservedFormula>
C3 O6 P

>  <Name>
SN-GLYCEROL-3-PHOSPHATE

>  <SystematicName>
[(2R)-2,3-bis(oxidanyl)propyl] dihydrogen phosphate

>  <Synonyms>


>  <Type>
NON-POLYMER

>  <Formula>
C3 H9 O6 P

>  <MolecularWeight>
172.074

>  <ModifiedDate>
2016-02-24

>  <Parent>


>  <OneLetterCode>


>  <SubcomponentList>


>  <AmbiguousFlag>
N

>  <InChI>
InChI=1S/C3H9O6P/c4-1-3(5)2-9-10(6,7)8/h3-5H,1-2H2,(H2,6,7,8)/t3-/m1/s1

>  <InChIKey>
AWUCVROLDVIAJX-GSVOUGTGSA-N

>  <SMILES>
C([C@H](COP(=O)(O)O)O)O

$$$$
