1O3I_907_A_246
  RCSB PDB08012015363D
Coordinates from PDB:1O3I:A:246 Model:1 without hydrogens
 21 23  0  0  0  0            999 V2000
   44.2440   -3.0370   25.8830   C 0  0  0  0  0  0  0  0  0  0  0  0
   44.6460   -1.6870   26.0030   C 0  0  0  0  0  0  0  0  0  0  0  0
   44.5720   -1.0070   27.2140   C 0  0  0  0  0  0  0  0  0  0  0  0
   44.1010   -1.6690   28.3180   C 0  0  0  0  0  0  0  0  0  0  0  0
   43.6970   -2.9570   28.2460   C 0  0  0  0  0  0  0  0  0  0  0  0
   43.7470   -3.6920   27.0540   C 0  0  0  0  0  0  0  0  0  0  0  0
   44.3520   -3.6950   24.6090   C 0  0  0  0  0  0  0  0  0  0  0  0
   43.9890   -4.9600   24.4500   N 0  0  0  0  0  0  0  0  0  0  0  0
   44.8280   -2.9980   23.5970   N 0  3  0  0  0  0  0  0  0  0  0  0
   43.9570   -1.2390   29.5440   N 0  0  0  0  0  0  0  0  0  0  0  0
   43.2920   -3.3100   29.5090   C 0  0  0  0  0  0  0  0  0  0  0  0
   43.4810   -2.1820   30.3070   C 0  0  0  0  0  0  0  0  0  0  0  0
   43.2640   -2.0470   31.7000   C 0  0  0  0  0  0  0  0  0  0  0  0
   42.9160   -3.1610   32.4830   C 0  0  0  0  0  0  0  0  0  0  0  0
   42.7070   -3.0250   33.8780   C 0  0  0  0  0  0  0  0  0  0  0  0
   42.3430   -4.1930   34.7610   C 0  0  0  0  0  0  0  0  0  0  0  0
   42.8370   -1.8170   34.4930   C 0  0  0  0  0  0  0  0  0  0  0  0
   43.1740   -0.7480   33.7360   C 0  0  0  0  0  0  0  0  0  0  0  0
   43.3930   -0.8150   32.3460   C 0  0  0  0  0  0  0  0  0  0  0  0
   43.7220    0.3330   31.6420   O 0  5  0  0  0  0  0  0  0  0  0  0
   43.3620    0.8820   34.7170  Br 0  0  0  0  0  0  0  0  0  0  0  0
  1  2  2  0  0  0  0
  1  6  1  0  0  0  0
  1  7  1  0  0  0  0
  2  3  1  0  0  0  0
  3  4  2  0  0  0  0
  4  5  1  0  0  0  0
  4 10  1  0  0  0  0
  5  6  2  0  0  0  0
  5 11  1  0  0  0  0
  7  8  1  0  0  0  0
  7  9  2  0  0  0  0
 10 12  1  0  0  0  0
 11 12  2  0  0  0  0
 12 13  1  0  0  0  0
 13 14  2  0  0  0  0
 13 19  1  0  0  0  0
 14 15  1  0  0  0  0
 15 16  1  0  0  0  0
 15 17  2  0  0  0  0
 17 18  1  0  0  0  0
 18 19  2  0  0  0  0
 18 21  1  0  0  0  0
 19 20  1  0  0  0  0
M  CHG  2   9   1  20  -1
M  END
>  <InstanceId>
1O3I_907_A_246

>  <ChemCompId>
907

>  <PdbId>
1O3I

>  <ChainId>
A

>  <ResidueNumber>
246

>  <InsertionCode>


>  <Model>
1

>  <AltIds>


>  <MissingHeavyAtoms>
0

>  <ObservedFormula>
C16 N3 O Br

>  <Name>
2-{5-[AMINO(IMINIO)METHYL]-1H-INDOL-2-YL}-6-BROMO-4-METHYLBENZENOLATE

>  <SystematicName>
2-[5-(amino-azaniumylidene-methyl)-1H-indol-2-yl]-6-bromo-4-methyl-phenolate

>  <Synonyms>
CRA_9076

>  <Type>
NON-POLYMER

>  <Formula>
C16 H14 Br N3 O

>  <MolecularWeight>
344.206

>  <ModifiedDate>
2011-06-04

>  <Parent>


>  <OneLetterCode>


>  <SubcomponentList>


>  <AmbiguousFlag>
N

>  <InChI>
InChI=1S/C16H14BrN3O/c1-8-4-11(15(21)12(17)5-8)14-7-10-6-9(16(18)19)2-3-13(10)20-14/h2-7,20-21H,1H3,(H3,18,19)

>  <InChIKey>
BVTBOJXEAPSOEB-UHFFFAOYSA-N

>  <SMILES>
Cc1cc(c(c(c1)Br)[O-])c2cc3cc(ccc3[nH]2)C(=[NH2+])N

$$$$
