5LLG_VD9_A_302
  RCSB PDB08022002133D
Coordinates from PDB:5LLG:A:302 Model:1 without hydrogens
 14 14  0  0  0  0            999 V2000
   -5.3750    0.9020   18.1090   O 0  0  0  0  0  0  0  0  0  0  0  0
   -5.9240    0.7870   16.8000   S 0  0  0  0  0  0  0  0  0  0  0  0
   -7.3640    0.8430   16.6840   O 0  0  0  0  0  0  0  0  0  0  0  0
   -5.4010   -0.5830   16.0810   N 0  0  0  0  0  0  0  0  0  0  0  0
   -5.3610    2.1980   15.9020   C 0  0  0  0  0  0  0  0  0  0  0  0
   -4.0210    2.2330   15.5340   C 0  0  0  0  0  0  0  0  0  0  0  0
   -3.5610    3.3850   14.8480   C 0  0  0  0  0  0  0  0  0  0  0  0
   -4.4450    4.4220   14.5210   C 0  0  0  0  0  0  0  0  0  0  0  0
   -5.7950    4.3700   14.8720   C 0  0  0  0  0  0  0  0  0  0  0  0
   -6.2630    3.2490   15.5940   C 0  0  0  0  0  0  0  0  0  0  0  0
   -3.9420    5.8600   13.6220   S 0  0  0  0  0  0  0  0  0  0  0  0
   -2.0640    5.8330   13.6550   C 0  0  0  0  0  0  0  0  0  0  0  0
   -1.5380    7.2170   13.2970   C 0  0  0  0  0  0  0  0  0  0  0  0
   -1.6540    7.9300   14.6450   C 0  0  0  0  0  0  0  0  0  0  0  0
 14 13  1  0  0  0  0
  1  2  2  0  0  0  0
 13 12  1  0  0  0  0
  2  3  2  0  0  0  0
  2  5  1  0  0  0  0
  2  4  1  0  0  0  0
  6  5  2  0  0  0  0
  6  7  1  0  0  0  0
  5 10  1  0  0  0  0
 12 11  1  0  0  0  0
  7  8  2  0  0  0  0
 10  9  2  0  0  0  0
  8  9  1  0  0  0  0
  8 11  1  0  0  0  0
M  END
>  <InstanceId>
5LLG_VD9_A_302

>  <ChemCompId>
VD9

>  <PdbId>
5LLG

>  <ChainId>
A

>  <ResidueNumber>
302

>  <InsertionCode>


>  <Model>
1

>  <AltIds>


>  <MissingHeavyAtoms>
0

>  <ObservedFormula>
C9 N O2 S2

>  <Name>
4-(propylsulfanyl)benzenesulfonamide

>  <SystematicName>
4-propylsulfanylbenzenesulfonamide

>  <Synonyms>


>  <Type>
NON-POLYMER

>  <Formula>
C9 H13 N O2 S2

>  <MolecularWeight>
231.335

>  <ModifiedDate>
2015-06-26

>  <Parent>


>  <OneLetterCode>


>  <SubcomponentList>


>  <AmbiguousFlag>
N

>  <InChI>
InChI=1S/C9H13NO2S2/c1-2-7-13-8-3-5-9(6-4-8)14(10,11)12/h3-6H,2,7H2,1H3,(H2,10,11,12)

>  <InChIKey>
QFWWUTSCPNTDPO-UHFFFAOYSA-N

>  <SMILES>
CCCSc1ccc(cc1)S(=O)(=O)N

$$$$
