2ZGX_29U_H_1601
  RCSB PDB08012018273D
Coordinates from PDB:2ZGX:H:1601 Model:1 without hydrogens
 24 25  0  0  0  0            999 V2000
   16.0930  -15.7440   23.0790   N 0  0  0  0  0  0  0  0  0  0  0  0
   17.4220  -15.1030   23.1790   C 0  0  0  0  0  0  0  0  0  0  0  0
   17.4360  -13.7490   22.4880   C 0  0  0  0  0  0  0  0  0  0  0  0
   16.4680  -13.0330   22.7690   O 0  0  0  0  0  0  0  0  0  0  0  0
   17.6350  -14.8790   24.7110   C 0  0  0  0  0  0  0  0  0  0  0  0
   18.9730  -14.4490   25.3430   C 0  0  0  0  0  0  0  0  0  0  0  0
   18.4130  -13.3300   21.6440   N 0  0  0  0  0  0  0  0  0  0  0  0
   18.3270  -12.0220   21.0170   C 0  0  0  0  0  0  0  0  0  0  0  0
   17.0180  -11.9110   20.2720   C 0  0  0  0  0  0  0  0  0  0  0  0
   16.6340  -12.8750   19.6440   O 0  0  0  0  0  0  0  0  0  0  0  0
   19.4930  -12.0770   19.9820   C 0  0  0  0  0  0  0  0  0  0  0  0
   20.4710  -13.0420   20.6980   C 0  0  0  0  0  0  0  0  0  0  0  0
   19.5280  -14.1680   21.1920   C 0  0  0  0  0  0  0  0  0  0  0  0
   16.3710  -10.7240   20.3370   N 0  0  0  0  0  0  0  0  0  0  0  0
   15.0790  -10.6370   19.6650   C 0  0  0  0  0  0  0  0  0  0  0  0
   13.9920  -10.6390   20.7580   C 0  0  0  0  0  0  0  0  0  0  0  0
   13.5860  -11.8300   21.3540   C 0  0  0  0  0  0  0  0  0  0  0  0
   12.6060  -11.8450   22.3400   C 0  0  0  0  0  0  0  0  0  0  0  0
   12.0120  -10.6500   22.7480   C 0  0  0  0  0  0  0  0  0  0  0  0
   10.8810  -10.6450   23.8790   C 0  0  0  0  0  0  0  0  0  0  0  0
   10.2060  -11.7630   24.0990   N 0  0  0  0  0  0  0  0  0  0  0  0
   10.6480   -9.5500   24.5560   N 0  0  0  0  0  0  0  0  0  0  0  0
   12.4210   -9.4500   22.1480   C 0  0  0  0  0  0  0  0  0  0  0  0
   13.4040   -9.4430   21.1600   C 0  0  0  0  0  0  0  0  0  0  0  0
  8  7  1  0  0  0  0
 13  7  1  0  0  0  0
  7  3  1  0  0  0  0
 11  8  1  0  0  0  0
  9  8  1  0  0  0  0
 10  9  2  0  0  0  0
  9 14  1  0  0  0  0
 15 14  1  0  0  0  0
 15 16  1  0  0  0  0
 16 24  2  0  0  0  0
 16 17  1  0  0  0  0
 24 23  1  0  0  0  0
 23 19  2  0  0  0  0
 18 19  1  0  0  0  0
 19 20  1  0  0  0  0
 20 21  2  0  0  0  0
 20 22  1  0  0  0  0
 17 18  2  0  0  0  0
 11 12  1  0  0  0  0
 12 13  1  0  0  0  0
  3  4  2  0  0  0  0
  3  2  1  0  0  0  0
  1  2  1  0  0  0  0
  2  5  1  0  0  0  0
  5  6  1  0  0  0  0
M  END
>  <InstanceId>
2ZGX_29U_H_1601

>  <ChemCompId>
29U

>  <PdbId>
2ZGX

>  <ChainId>
H

>  <ResidueNumber>
1601

>  <InsertionCode>


>  <Model>
1

>  <AltIds>


>  <MissingHeavyAtoms>
0

>  <ObservedFormula>
C17 N5 O2

>  <Name>
1-[(2R)-2-aminobutanoyl]-N-(4-carbamimidoylbenzyl)-L-prolinamide

>  <SystematicName>
(2S)-1-[(2R)-2-aminobutanoyl]-N-[(4-carbamimidoylphenyl)methyl]pyrrolidine-2-carboxamide

>  <Synonyms>


>  <Type>
NON-POLYMER

>  <Formula>
C17 H25 N5 O2

>  <MolecularWeight>
331.413

>  <ModifiedDate>
2012-01-05

>  <Parent>


>  <OneLetterCode>


>  <SubcomponentList>
ABA PRO 00S

>  <AmbiguousFlag>
N

>  <InChI>
InChI=1S/C17H25N5O2/c1-2-13(18)17(24)22-9-3-4-14(22)16(23)21-10-11-5-7-12(8-6-11)15(19)20/h5-8,13-14H,2-4,9-10,18H2,1H3,(H3,19,20)(H,21,23)/t13-,14+/m1/s1

>  <InChIKey>
YHAMQFKGUUSJMU-KGLIPLIRSA-N

>  <SMILES>
[H]/N=C(/c1ccc(cc1)CNC(=O)[C@@H]2CCCN2C(=O)[C@@H](CC)N)\N

$$$$
