5K1D_5GP_A_401
  RCSB PDB08022002003D
Coordinates from PDB:5K1D:A:401 Model:1 without hydrogens
 24 26  0  0  0  0            999 V2000
   -0.6490    1.8220   18.3920   P 0  0  0  0  0  0  0  0  0  0  0  0
    0.2930    1.0120   17.5020   O 0  0  0  0  0  0  0  0  0  0  0  0
   -0.0160    2.8760   19.2690   O 0  0  0  0  0  0  0  0  0  0  0  0
   -1.8930    2.3700   17.7250   O 0  0  0  0  0  0  0  0  0  0  0  0
   -1.1830    0.7330   19.4350   O 0  0  0  0  0  0  0  0  0  0  0  0
   -2.1560    1.0840   20.4160   C 0  0  0  0  0  0  0  0  0  0  0  0
   -1.9220    0.4040   21.7470   C 0  0  0  0  0  0  0  0  0  0  0  0
   -2.2880   -1.0010   21.6450   O 0  0  0  0  0  0  0  0  0  0  0  0
   -0.4780    0.4400   22.2540   C 0  0  0  0  0  0  0  0  0  0  0  0
   -0.4780    0.6430   23.6670   O 0  0  0  0  0  0  0  0  0  0  0  0
    0.0340   -0.9660   21.9300   C 0  0  0  0  0  0  0  0  0  0  0  0
    1.0940   -1.4040   22.7530   O 0  0  0  0  0  0  0  0  0  0  0  0
   -1.2270   -1.8000   22.1340   C 0  0  0  0  0  0  0  0  0  0  0  0
   -1.2490   -3.0830   21.4170   N 0  0  0  0  0  0  0  0  0  0  0  0
   -0.7730   -3.3220   20.1830   C 0  0  0  0  0  0  0  0  0  0  0  0
   -0.9870   -4.6190   19.8700   N 0  0  0  0  0  0  0  0  0  0  0  0
   -1.6060   -5.2000   20.9230   C 0  0  0  0  0  0  0  0  0  0  0  0
   -2.0730   -6.4940   21.1690   C 0  0  0  0  0  0  0  0  0  0  0  0
   -1.9320   -7.3940   20.3050   O 0  0  0  0  0  0  0  0  0  0  0  0
   -2.6750   -6.7690   22.3400   N 0  0  0  0  0  0  0  0  0  0  0  0
   -2.8300   -5.8140   23.2770   C 0  0  0  0  0  0  0  0  0  0  0  0
   -3.4340   -6.1260   24.4520   N 0  0  0  0  0  0  0  0  0  0  0  0
   -2.3840   -4.5460   23.0650   N 0  0  0  0  0  0  0  0  0  0  0  0
   -1.7800   -4.2200   21.8900   C 0  0  0  0  0  0  0  0  0  0  0  0
  1  2  2  0  0  0  0
  1  3  1  0  0  0  0
  1  4  1  0  0  0  0
  1  5  1  0  0  0  0
  5  6  1  0  0  0  0
  6  7  1  0  0  0  0
  7  8  1  0  0  0  0
  7  9  1  0  0  0  0
  8 13  1  0  0  0  0
  9 10  1  0  0  0  0
  9 11  1  0  0  0  0
 11 12  1  0  0  0  0
 11 13  1  0  0  0  0
 13 14  1  0  0  0  0
 14 15  1  0  0  0  0
 14 24  1  0  0  0  0
 15 16  2  0  0  0  0
 16 17  1  0  0  0  0
 17 18  1  0  0  0  0
 17 24  2  0  0  0  0
 18 19  2  0  0  0  0
 18 20  1  0  0  0  0
 20 21  1  0  0  0  0
 21 22  1  0  0  0  0
 21 23  2  0  0  0  0
 23 24  1  0  0  0  0
M  END
>  <InstanceId>
5K1D_5GP_A_401

>  <ChemCompId>
5GP

>  <PdbId>
5K1D

>  <ChainId>
A

>  <ResidueNumber>
401

>  <InsertionCode>


>  <Model>
1

>  <AltIds>


>  <MissingHeavyAtoms>
0

>  <ObservedFormula>
C10 N5 O8 P

>  <Name>
GUANOSINE-5'-MONOPHOSPHATE

>  <SystematicName>
[(2R,3S,4R,5R)-5-(2-amino-6-oxo-1H-purin-9-yl)-3,4-dihydroxy-oxolan-2-yl]methyl dihydrogen phosphate

>  <Synonyms>


>  <Type>
NON-POLYMER

>  <Formula>
C10 H14 N5 O8 P

>  <MolecularWeight>
363.221

>  <ModifiedDate>
2011-06-04

>  <Parent>


>  <OneLetterCode>


>  <SubcomponentList>


>  <AmbiguousFlag>
N

>  <InChI>
InChI=1S/C10H14N5O8P/c11-10-13-7-4(8(18)14-10)12-2-15(7)9-6(17)5(16)3(23-9)1-22-24(19,20)21/h2-3,5-6,9,16-17H,1H2,(H2,19,20,21)(H3,11,13,14,18)/t3-,5-,6-,9-/m1/s1

>  <InChIKey>
RQFCJASXJCIDSX-UUOKFMHZSA-N

>  <SMILES>
c1nc2c(n1[C@H]3[C@@H]([C@@H]([C@H](O3)COP(=O)(O)O)O)O)N=C(NC2=O)N

$$$$
