3BVB_017_B_401
  RCSB PDB08012018403D
Coordinates from PDB:3BVB:B:401 Model:1 without hydrogens
 38 41  0  0  0  0            999 V2000
    8.0340   57.2280   13.7800   N 0  0  0  0  0  0  0  0  0  0  0  0
    8.4550   58.4550   14.2740   C 0  0  0  0  0  0  0  0  0  0  0  0
    9.7570   58.9070   14.0660   C 0  0  0  0  0  0  0  0  0  0  0  0
   10.2000   60.1120   14.5510   C 0  0  0  0  0  0  0  0  0  0  0  0
    9.3540   60.9140   15.2930   C 0  0  0  0  0  0  0  0  0  0  0  0
    8.0190   60.5100   15.4740   C 0  0  0  0  0  0  0  0  0  0  0  0
    7.6000   59.2520   15.0290   C 0  0  0  0  0  0  0  0  0  0  0  0
   10.4420   62.2660   15.8340   S 0  0  0  0  0  0  0  0  0  0  0  0
   11.4800   62.4290   14.8370   O 0  0  0  0  0  0  0  0  0  0  0  0
    9.5230   63.3280   16.2310   O 0  0  0  0  0  0  0  0  0  0  0  0
   11.1830   61.7540   17.2860   N 0  0  0  0  0  0  0  0  0  0  0  0
   10.3420   61.5500   18.4840   C 0  0  0  0  0  0  0  0  0  0  0  0
   10.7190   62.2700   19.8050   C 0  0  0  0  0  0  0  0  0  0  0  0
   10.4990   63.7900   19.5990   C 0  0  0  0  0  0  0  0  0  0  0  0
    9.6690   61.7890   20.8300   C 0  0  0  0  0  0  0  0  0  0  0  0
   12.5300   61.1070   17.2530   C 0  0  0  0  0  0  0  0  0  0  0  0
   13.5730   62.0410   17.9410   C 0  0  0  0  0  0  0  0  0  0  0  0
   14.6860   61.3240   18.4980   O 0  0  0  0  0  0  0  0  0  0  0  0
   14.1090   63.1300   17.0060   C 0  0  0  0  0  0  0  0  0  0  0  0
   15.0270   63.9890   17.7960   N 0  0  0  0  0  0  0  0  0  0  0  0
   14.7050   65.2870   18.0430   C 0  0  0  0  0  0  0  0  0  0  0  0
   13.7070   65.9000   17.6560   O 0  0  0  0  0  0  0  0  0  0  0  0
   15.6850   65.8030   18.8400   O 0  0  0  0  0  0  0  0  0  0  0  0
   15.5860   67.2390   19.1250   C 0  0  0  0  0  0  0  0  0  0  0  0
   16.2060   67.4560   20.5090   C 0  0  0  0  0  0  0  0  0  0  0  0
   17.6270   67.3850   20.3100   O 0  0  0  0  0  0  0  0  0  0  0  0
   17.9210   67.9290   19.0010   C 0  0  0  0  0  0  0  0  0  0  0  0
   18.7560   67.0290   18.3360   O 0  0  0  0  0  0  0  0  0  0  0  0
   18.0690   66.4330   17.2620   C 0  0  0  0  0  0  0  0  0  0  0  0
   16.9400   67.4030   16.8700   C 0  0  0  0  0  0  0  0  0  0  0  0
   16.5730   68.0030   18.2470   C 0  0  0  0  0  0  0  0  0  0  0  0
   14.8840   62.6330   15.7620   C 0  0  0  0  0  0  0  0  0  0  0  0
   16.6120   64.2390   14.7830   C 0  0  0  0  0  0  0  0  0  0  0  0
   17.0310   65.3160   14.0040   C 0  0  0  0  0  0  0  0  0  0  0  0
   16.0340   66.0110   13.3300   C 0  0  0  0  0  0  0  0  0  0  0  0
   14.7220   65.5930   13.3960   C 0  0  0  0  0  0  0  0  0  0  0  0
   14.3230   64.5230   14.1760   C 0  0  0  0  0  0  0  0  0  0  0  0
   15.3010   63.7860   14.8580   C 0  0  0  0  0  0  0  0  0  0  0  0
  1  2  1  0  0  0  0
  2  3  2  0  0  0  0
  2  7  1  0  0  0  0
  3  4  1  0  0  0  0
  4  5  2  0  0  0  0
  5  6  1  0  0  0  0
  5  8  1  0  0  0  0
  6  7  2  0  0  0  0
  8  9  2  0  0  0  0
  8 10  2  0  0  0  0
  8 11  1  0  0  0  0
 11 12  1  0  0  0  0
 11 16  1  0  0  0  0
 12 13  1  0  0  0  0
 13 14  1  0  0  0  0
 13 15  1  0  0  0  0
 16 17  1  0  0  0  0
 17 18  1  0  0  0  0
 17 19  1  0  0  0  0
 19 20  1  0  0  0  0
 19 32  1  0  0  0  0
 20 21  1  0  0  0  0
 21 22  2  0  0  0  0
 21 23  1  0  0  0  0
 23 24  1  0  0  0  0
 24 25  1  0  0  0  0
 24 31  1  0  0  0  0
 25 26  1  0  0  0  0
 26 27  1  0  0  0  0
 27 28  1  0  0  0  0
 27 31  1  0  0  0  0
 28 29  1  0  0  0  0
 29 30  1  0  0  0  0
 30 31  1  0  0  0  0
 32 38  1  0  0  0  0
 33 34  2  0  0  0  0
 33 38  1  0  0  0  0
 34 35  1  0  0  0  0
 35 36  2  0  0  0  0
 36 37  1  0  0  0  0
 37 38  2  0  0  0  0
M  END
>  <InstanceId>
3BVB_017_B_401

>  <ChemCompId>
017

>  <PdbId>
3BVB

>  <ChainId>
B

>  <ResidueNumber>
401

>  <InsertionCode>


>  <Model>
1

>  <AltIds>


>  <MissingHeavyAtoms>
0

>  <ObservedFormula>
C27 N3 O7 S

>  <Name>
(3R,3AS,6AR)-HEXAHYDROFURO[2,3-B]FURAN-3-YL(1S,2R)-3-[[(4-AMINOPHENYL)SULFONYL](ISOBUTYL)AMINO]-1-BENZYL-2-HYDROXYPROPYLCARBAMATE

>  <SystematicName>
[(3R,3aS,6aR)-2,3,3a,4,5,6a-hexahydrofuro[2,3-b]furan-3-yl] N-[(2S,3R)-4-[(4-aminophenyl)sulfonyl-(2-methylpropyl)amino]-3-hydroxy-1-phenyl-butan-2-yl]carbamate

>  <Synonyms>
Darunavir; TMC114; UIC-94017

>  <Type>
NON-POLYMER

>  <Formula>
C27 H37 N3 O7 S

>  <MolecularWeight>
547.664

>  <ModifiedDate>
2020-05-22

>  <Parent>


>  <OneLetterCode>


>  <SubcomponentList>


>  <AmbiguousFlag>
N

>  <InChI>
InChI=1S/C27H37N3O7S/c1-18(2)15-30(38(33,34)21-10-8-20(28)9-11-21)16-24(31)23(14-19-6-4-3-5-7-19)29-27(32)37-25-17-36-26-22(25)12-13-35-26/h3-11,18,22-26,31H,12-17,28H2,1-2H3,(H,29,32)/t22-,23-,24+,25-,26+/m0/s1

>  <InChIKey>
CJBJHOAVZSMMDJ-HEXNFIEUSA-N

>  <SMILES>
CC(C)C[N@@](C[C@H]([C@H](Cc1ccccc1)NC(=O)O[C@H]2CO[C@@H]3[C@H]2CCO3)O)S(=O)(=O)c4ccc(cc4)N

$$$$
