2WKZ_5AH_B_1200
  RCSB PDB08012018093D
Coordinates from PDB:2WKZ:B:1200 Model:1 without hydrogens
 51 55  0  0  0  0            999 V2000
   14.7130   17.6030    3.9000   C 0  0  0  0  0  0  0  0  0  0  0  0
   18.7520   16.9940   11.8960   C 0  0  0  0  0  0  0  0  0  0  0  0
   18.3210   18.1090   11.2180   N 0  0  0  0  0  0  0  0  0  0  0  0
   17.0300   18.1690   10.6140   C 0  0  0  0  0  0  0  0  0  0  0  0
   16.1860   17.0200   10.7330   C 0  0  0  0  0  0  0  0  0  0  0  0
   16.6560   15.8870   11.4360   C 0  0  0  0  0  0  0  0  0  0  0  0
   17.9530   15.8910   12.0170   C 0  0  0  0  0  0  0  0  0  0  0  0
   11.8820   24.0040    4.1690   C 0  0  0  0  0  0  0  0  0  0  0  0
   13.0830   23.0990    4.5970   C 0  0  0  0  0  0  0  0  0  0  0  0
   14.0080   23.7170    5.6820   C 0  0  0  0  0  0  0  0  0  0  0  0
   12.3990   25.3120    3.7940   O 0  0  0  0  0  0  0  0  0  0  0  0
   11.1600   23.3930    2.9010   C 0  0  0  0  0  0  0  0  0  0  0  0
    9.6810   23.8320    2.6610   C 0  0  0  0  0  0  0  0  0  0  0  0
    9.3860   25.1380    2.1440   C 0  0  0  0  0  0  0  0  0  0  0  0
    8.0410   25.5450    1.9310   C 0  0  0  0  0  0  0  0  0  0  0  0
    6.9710   24.6570    2.2300   C 0  0  0  0  0  0  0  0  0  0  0  0
    7.2510   23.3570    2.7430   C 0  0  0  0  0  0  0  0  0  0  0  0
    8.5950   22.9430    2.9570   C 0  0  0  0  0  0  0  0  0  0  0  0
   10.8180   24.1580    5.2730   C 0  0  0  0  0  0  0  0  0  0  0  0
   10.1970   25.3620    5.3820   N 0  0  0  0  0  0  0  0  0  0  0  0
    9.1240   25.5850    6.3640   C 0  0  0  0  0  0  0  0  0  0  0  0
    7.9670   26.5460    5.9260   C 0  0  0  0  0  0  0  0  0  0  0  0
    8.4030   27.6380    5.0650   O 0  0  0  0  0  0  0  0  0  0  0  0
    7.3680   27.1510    7.2180   C 0  0  0  0  0  0  0  0  0  0  0  0
    8.5540   27.0890    8.1720   C 0  0  0  0  0  0  0  0  0  0  0  0
    8.7170   27.7890    9.3950   C 0  0  0  0  0  0  0  0  0  0  0  0
    9.9150   27.5820   10.1360   C 0  0  0  0  0  0  0  0  0  0  0  0
   10.9250   26.6890    9.6550   C 0  0  0  0  0  0  0  0  0  0  0  0
   10.7530   25.9910    8.4270   C 0  0  0  0  0  0  0  0  0  0  0  0
    9.5520   26.2040    7.6890   C 0  0  0  0  0  0  0  0  0  0  0  0
   10.5210   23.2110    5.9890   O 0  0  0  0  0  0  0  0  0  0  0  0
   14.6840   22.6790    6.5010   N 0  0  0  0  0  0  0  0  0  0  0  0
   15.4030   23.0680    7.7440   C 0  0  0  0  0  0  0  0  0  0  0  0
   15.8340   21.8000    8.4990   C 0  0  0  0  0  0  0  0  0  0  0  0
   14.8510   20.9840    9.1250   C 0  0  0  0  0  0  0  0  0  0  0  0
   15.2360   19.8010    9.8140   C 0  0  0  0  0  0  0  0  0  0  0  0
   16.6120   19.4160    9.8900   C 0  0  0  0  0  0  0  0  0  0  0  0
   17.5940   20.2460    9.2650   C 0  0  0  0  0  0  0  0  0  0  0  0
   17.2070   21.4270    8.5700   C 0  0  0  0  0  0  0  0  0  0  0  0
   15.6220   21.8140    5.6460   N 0  0  0  0  0  0  0  0  0  0  0  0
   15.2840   20.5340    5.3210   C 0  0  0  0  0  0  0  0  0  0  0  0
   16.2440   19.6780    4.4860   C 0  0  0  0  0  0  0  0  0  0  0  0
   16.9110   18.8600    5.4930   N 0  0  0  0  0  0  0  0  0  0  0  0
   18.2200   19.0000    5.7600   C 0  0  0  0  0  0  0  0  0  0  0  0
   18.6090   18.1290    6.7220   O 0  0  0  0  0  0  0  0  0  0  0  0
   20.0000   18.1780    7.0990   C 0  0  0  0  0  0  0  0  0  0  0  0
   18.9580   19.8110    5.2010   O 0  0  0  0  0  0  0  0  0  0  0  0
   15.5910   18.7780    3.3490   C 0  0  0  0  0  0  0  0  0  0  0  0
   14.7040   19.6450    2.4070   C 0  0  0  0  0  0  0  0  0  0  0  0
   16.7430   18.1360    2.5050   C 0  0  0  0  0  0  0  0  0  0  0  0
   14.2120   20.0550    5.7120   O 0  0  0  0  0  0  0  0  0  0  0  0
  1 48  1  0  0  0  0
  2  3  2  0  0  0  0
  2  7  1  0  0  0  0
  3  4  1  0  0  0  0
  4  5  2  0  0  0  0
  4 37  1  0  0  0  0
  5  6  1  0  0  0  0
  6  7  2  0  0  0  0
  8  9  1  0  0  0  0
  8 11  1  0  0  0  0
  8 12  1  0  0  0  0
  8 19  1  0  0  0  0
  9 10  1  0  0  0  0
 10 32  1  0  0  0  0
 12 13  1  0  0  0  0
 13 14  1  0  0  0  0
 13 18  2  0  0  0  0
 14 15  2  0  0  0  0
 15 16  1  0  0  0  0
 16 17  2  0  0  0  0
 17 18  1  0  0  0  0
 19 20  1  0  0  0  0
 19 31  2  0  0  0  0
 20 21  1  0  0  0  0
 21 22  1  0  0  0  0
 21 30  1  0  0  0  0
 22 23  1  0  0  0  0
 22 24  1  0  0  0  0
 24 25  1  0  0  0  0
 25 26  2  0  0  0  0
 25 30  1  0  0  0  0
 26 27  1  0  0  0  0
 27 28  2  0  0  0  0
 28 29  1  0  0  0  0
 29 30  2  0  0  0  0
 32 33  1  0  0  0  0
 32 40  1  0  0  0  0
 33 34  1  0  0  0  0
 34 35  1  0  0  0  0
 34 39  2  0  0  0  0
 35 36  2  0  0  0  0
 36 37  1  0  0  0  0
 37 38  2  0  0  0  0
 38 39  1  0  0  0  0
 40 41  1  0  0  0  0
 41 42  1  0  0  0  0
 41 51  2  0  0  0  0
 42 43  1  0  0  0  0
 42 48  1  0  0  0  0
 43 44  1  0  0  0  0
 44 45  1  0  0  0  0
 44 47  2  0  0  0  0
 45 46  1  0  0  0  0
 48 49  1  0  0  0  0
 48 50  1  0  0  0  0
M  END
>  <InstanceId>
2WKZ_5AH_B_1200

>  <ChemCompId>
5AH

>  <PdbId>
2WKZ

>  <ChainId>
B

>  <ResidueNumber>
1200

>  <InsertionCode>


>  <Model>
1

>  <AltIds>


>  <MissingHeavyAtoms>
0

>  <ObservedFormula>
C40 N5 O6

>  <Name>
METHYL [(1S)-1-({2-[(3S)-3-BENZYL-3-HYDROXY-4-{[(1S,2R)-2-HYDROXY-2,3-DIHYDRO-1H-INDEN-1-YL]AMINO}-4-OXOBUTYL]-2-(4-PYRIDIN-2-YLBENZYL)HYDRAZINO}CARBONYL)-2,2-DIMETHYLPROPYL]CARBAMATE

>  <SystematicName>
methyl N-[(2S)-1-[2-[(3S)-3-hydroxy-4-[[(1S,2R)-2-hydroxy-2,3-dihydro-1H-inden-1-yl]amino]-4-oxo-3-(phenylmethyl)butyl]-2-[(4-pyridin-2-ylphenyl)methyl]hydrazinyl]-3,3-dimethyl-1-oxo-butan-2-yl]carbamate

>  <Synonyms>


>  <Type>
non-polymer

>  <Formula>
C40 H47 N5 O6

>  <MolecularWeight>
693.831

>  <ModifiedDate>
2011-06-04

>  <Parent>


>  <OneLetterCode>


>  <SubcomponentList>


>  <AmbiguousFlag>
N

>  <InChI>
InChI=1S/C40H47N5O6/c1-39(2,3)35(43-38(49)51-4)36(47)44-45(26-28-17-19-29(20-18-28)32-16-10-11-22-41-32)23-21-40(50,25-27-12-6-5-7-13-27)37(48)42-34-31-15-9-8-14-30(31)24-33(34)46/h5-20,22,33-35,46,50H,21,23-26H2,1-4H3,(H,42,48)(H,43,49)(H,44,47)/t33-,34+,35-,40-/m1/s1

>  <InChIKey>
AWOPQBWUWCOWJO-UKVDXBKXSA-N

>  <SMILES>
CC(C)(C)[C@@H](C(=O)N[N@](CC[C@@](Cc1ccccc1)(C(=O)N[C@H]2c3ccccc3C[C@H]2O)O)Cc4ccc(cc4)c5ccccn5)NC(=O)OC

$$$$
