4QJX_WWO_A_304
  RCSB PDB08012023013D
Coordinates from PDB:4QJX:A:304 Model:1 without hydrogens
 27 28  0  0  0  0            999 V2000
   21.3210   -3.3800    1.5820   F 0  0  0  0  0  0  0  0  0  0  0  0
   21.6280   -2.7810    2.7310   C 0  0  0  0  0  0  0  0  0  0  0  0
   21.4360   -3.5300    3.9280   C 0  0  0  0  0  0  0  0  0  0  0  0
   20.7670   -5.2440    3.8850   S 0  0  0  0  0  0  0  0  0  0  0  0
   21.6440   -6.3220    3.2680   O 0  0  0  0  0  0  0  0  0  0  0  0
   20.5240   -5.7020    5.5960   N 0  0  0  0  0  0  0  0  0  0  0  0
   19.4330   -5.4050    3.1940   O 0  0  0  0  0  0  0  0  0  0  0  0
   21.7660   -2.8790    5.1400   C 0  0  0  0  0  0  0  0  0  0  0  0
   21.6630   -3.4120    6.3700   F 0  0  0  0  0  0  0  0  0  0  0  0
   22.2670   -1.5720    5.1410   C 0  0  0  0  0  0  0  0  0  0  0  0
   22.5580   -1.0310    6.3490   F 0  0  0  0  0  0  0  0  0  0  0  0
   22.1230   -1.4540    2.7060   C 0  0  0  0  0  0  0  0  0  0  0  0
   22.4610   -0.8600    3.9320   C 0  0  0  0  0  0  0  0  0  0  0  0
   23.0160    0.8650    3.9940   S 0  0  0  0  0  0  0  0  0  0  0  0
   22.1910    1.4910    5.1410   O 0  0  0  0  0  0  0  0  0  0  0  0
   22.2200    1.5330    2.8220   O 0  0  0  0  0  0  0  0  0  0  0  0
   24.7280    1.4150    3.9010   C 0  0  0  0  0  0  0  0  0  0  0  0
   24.7640    2.7070    3.0680   C 0  0  0  0  0  0  0  0  0  0  0  0
   26.0380    2.8840    2.5200   O 0  0  0  0  0  0  0  0  0  0  0  0
   22.2450   -0.7370    1.4450   N 0  0  0  0  0  0  0  0  0  0  0  0
   20.9550   -0.5130    0.8240   C 0  0  0  0  0  0  0  0  0  0  0  0
   20.8720   -0.3780   -0.6580   C 0  0  0  0  0  0  0  0  0  0  0  0
   21.2330   -1.4300   -1.5140   C 0  0  0  0  0  0  0  0  0  0  0  0
   21.1070   -1.2870   -2.9160   C 0  0  0  0  0  0  0  0  0  0  0  0
   20.6170   -0.0780   -3.4310   C 0  0  0  0  0  0  0  0  0  0  0  0
   20.2610    0.9830   -2.5780   C 0  0  0  0  0  0  0  0  0  0  0  0
   20.3950    0.8360   -1.1950   C 0  0  0  0  0  0  0  0  0  0  0  0
  5  4  2  0  0  0  0
  4  6  1  0  0  0  0
  4  3  1  0  0  0  0
  4  7  2  0  0  0  0
 27 26  2  0  0  0  0
 27 22  1  0  0  0  0
  1  2  1  0  0  0  0
 26 25  1  0  0  0  0
 21 22  1  0  0  0  0
 21 20  1  0  0  0  0
  3  2  2  0  0  0  0
  3  8  1  0  0  0  0
  2 12  1  0  0  0  0
 22 23  2  0  0  0  0
  8  9  1  0  0  0  0
  8 10  2  0  0  0  0
 12 20  1  0  0  0  0
 12 13  2  0  0  0  0
 16 14  2  0  0  0  0
 25 24  2  0  0  0  0
 10 13  1  0  0  0  0
 10 11  1  0  0  0  0
 13 14  1  0  0  0  0
 15 14  2  0  0  0  0
 23 24  1  0  0  0  0
 14 17  1  0  0  0  0
 17 18  1  0  0  0  0
 19 18  1  0  0  0  0
M  END
>  <InstanceId>
4QJX_WWO_A_304

>  <ChemCompId>
WWO

>  <PdbId>
4QJX

>  <ChainId>
A

>  <ResidueNumber>
304

>  <InsertionCode>


>  <Model>
1

>  <AltIds>


>  <MissingHeavyAtoms>
0

>  <ObservedFormula>
C15 N2 O5 S2 F3

>  <Name>
3-(benzylamino)-2,5,6-trifluoro-4-[(2-hydroxyethyl)sulfonyl]benzenesulfonamide

>  <SystematicName>
2,3,6-tris(fluoranyl)-4-(2-hydroxyethylsulfonyl)-5-[(phenylmethyl)amino]benzenesulfonamide

>  <Synonyms>


>  <Type>
NON-POLYMER

>  <Formula>
C15 H15 F3 N2 O5 S2

>  <MolecularWeight>
424.415

>  <ModifiedDate>
2015-04-10

>  <Parent>


>  <OneLetterCode>


>  <SubcomponentList>


>  <AmbiguousFlag>
N

>  <InChI>
InChI=1S/C15H15F3N2O5S2/c16-10-11(17)15(26(22,23)7-6-21)13(12(18)14(10)27(19,24)25)20-8-9-4-2-1-3-5-9/h1-5,20-21H,6-8H2,(H2,19,24,25)

>  <InChIKey>
OLTMJLATLWYQJF-UHFFFAOYSA-N

>  <SMILES>
c1ccc(cc1)CNc2c(c(c(c(c2S(=O)(=O)CCO)F)F)S(=O)(=O)N)F

$$$$
