5EPN_5R2_A_1203
  RCSB PDB08022001163D
Coordinates from PDB:5EPN:A:1203 Model:1 without hydrogens
 53 58  0  0  0  0            999 V2000
  -15.0800  -18.4960   17.1620   C 0  0  0  0  0  0  0  0  0  0  0  0
  -17.3610  -20.1650   16.1510   C 0  0  0  0  0  0  0  0  0  0  0  0
  -16.8030  -21.9480   17.9240   C 0  0  0  0  0  0  0  0  0  0  0  0
  -15.3780  -24.0000   17.4630   C 0  0  0  0  0  0  0  0  0  0  0  0
  -14.1910  -23.9640   14.6320   C 0  0  0  0  0  0  0  0  0  0  0  0
  -13.1040  -23.9870   13.6290   C 0  0  0  0  0  0  0  0  0  0  0  0
  -12.8070  -22.8200   12.7850   C 0  0  0  0  0  0  0  0  0  0  0  0
  -15.3750  -14.5170   12.5870   C 0  0  0  0  0  0  0  0  0  0  0  0
  -14.7640  -15.3740   13.5970   C 0  0  0  0  0  0  0  0  0  0  0  0
  -13.7910  -14.7690   14.5530   C 0  0  0  0  0  0  0  0  0  0  0  0
  -13.6480  -15.4010   15.7590   C 0  0  0  0  0  0  0  0  0  0  0  0
  -14.4450  -16.4770   16.0290   O 0  0  0  0  0  0  0  0  0  0  0  0
  -13.9550  -17.3900   16.9730   C 0  0  0  0  0  0  0  0  0  0  0  0
  -12.9150  -18.0410   16.5620   C 0  0  0  0  0  0  0  0  0  0  0  0
  -13.3870  -19.3620   15.8830   C 0  0  0  0  0  0  0  0  0  0  0  0
  -14.9160  -19.3460   16.1930   N 0  0  0  0  0  0  0  0  0  0  0  0
  -15.9280  -20.1970   15.6300   C 0  0  0  0  0  0  0  0  0  0  0  0
  -15.6660  -20.9350   14.8030   O 0  0  0  0  0  0  0  0  0  0  0  0
  -17.7900  -21.4660   16.8440   C 0  0  0  0  0  0  0  0  0  0  0  0
  -16.6590  -23.4470   18.0120   C 0  0  0  0  0  0  0  0  0  0  0  0
  -15.5980  -25.0140   16.3960   C 0  0  0  0  0  0  0  0  0  0  0  0
  -14.3920  -25.0480   15.4520   C 0  0  0  0  0  0  0  0  0  0  0  0
  -12.2970  -22.7610   14.2070   C 0  0  0  0  0  0  0  0  0  0  0  0
  -12.6000  -21.4010   14.5690   N 0  0  0  0  0  0  0  0  0  0  0  0
  -13.0920  -20.9040   15.7910   C 0  0  0  0  0  0  0  0  0  0  0  0
  -13.2790  -21.6880   16.6650   O 0  0  0  0  0  0  0  0  0  0  0  0
  -11.0000  -23.3500   14.8670   C 0  0  0  0  0  0  0  0  0  0  0  0
  -10.6810  -24.4240   14.6450   O 0  0  0  0  0  0  0  0  0  0  0  0
  -10.1720  -22.6380   15.7600   N 0  0  0  0  0  0  0  0  0  0  0  0
   -8.8960  -23.1480   16.4860   S 0  0  0  0  0  0  0  0  0  0  0  0
   -8.0700  -23.7250   15.6630   O 0  0  0  0  0  0  0  0  0  0  0  0
   -9.2400  -24.1090   17.3070   O 0  0  0  0  0  0  0  0  0  0  0  0
   -8.1430  -21.9170   17.5690   C 0  0  0  0  0  0  0  0  0  0  0  0
   -7.0650  -21.1800   16.8230   C 0  0  0  0  0  0  0  0  0  0  0  0
   -6.6980  -22.2190   17.7960   C 0  0  0  0  0  0  0  0  0  0  0  0
  -18.3110  -19.8080   15.2260   N 0  0  0  0  0  0  0  0  0  0  0  0
  -18.6350  -18.4860   14.9950   C 0  0  0  0  0  0  0  0  0  0  0  0
  -17.9180  -17.6440   15.3790   O 0  0  0  0  0  0  0  0  0  0  0  0
  -19.3110  -18.4400   13.7970   O 0  0  0  0  0  0  0  0  0  0  0  0
  -19.8980  -17.2870   13.2560   C 0  0  0  0  0  0  0  0  0  0  0  0
  -20.6340  -16.4870   14.3010   C 0  0  0  0  0  0  0  0  0  0  0  0
  -20.8820  -17.7200   12.1860   C 0  0  0  0  0  0  0  0  0  0  0  0
  -18.8110  -16.4450   12.6150   C 0  0  0  0  0  0  0  0  0  0  0  0
  -12.8140  -14.9270   16.6260   N 0  0  0  0  0  0  0  0  0  0  0  0
  -12.0920  -13.8240   16.2870   C 0  0  0  0  0  0  0  0  0  0  0  0
  -11.1860  -13.3070   17.2220   C 0  0  0  0  0  0  0  0  0  0  0  0
  -10.4120  -12.1840   16.9090   C 0  0  0  0  0  0  0  0  0  0  0  0
   -9.5030  -11.6220   17.7860   O 0  0  0  0  0  0  0  0  0  0  0  0
   -9.2230  -12.2500   18.9830   C 0  0  0  0  0  0  0  0  0  0  0  0
  -10.5680  -11.5760   15.6680   C 0  0  0  0  0  0  0  0  0  0  0  0
  -11.4730  -12.0790   14.7500   C 0  0  0  0  0  0  0  0  0  0  0  0
  -12.2360  -13.2090   15.0890   C 0  0  0  0  0  0  0  0  0  0  0  0
  -13.0940  -13.7190   14.2090   N 0  0  0  0  0  0  0  0  0  0  0  0
  1 13  1  0  0  0  0
  1 16  1  0  0  0  0
  2 17  1  0  0  0  0
  2 19  1  0  0  0  0
  2 36  1  0  0  0  0
  3 19  1  0  0  0  0
  3 20  1  0  0  0  0
  4 20  1  0  0  0  0
  4 21  1  0  0  0  0
  5  6  1  0  0  0  0
  5 22  2  0  0  0  0
  6  7  1  0  0  0  0
  6 23  1  0  0  0  0
  7 23  1  0  0  0  0
  8  9  1  0  0  0  0
  9 10  1  0  0  0  0
 10 11  2  0  0  0  0
 10 53  1  0  0  0  0
 11 12  1  0  0  0  0
 11 44  1  0  0  0  0
 12 13  1  0  0  0  0
 13 14  1  0  0  0  0
 14 15  1  0  0  0  0
 15 16  1  0  0  0  0
 15 25  1  0  0  0  0
 16 17  1  0  0  0  0
 17 18  2  0  0  0  0
 21 22  1  0  0  0  0
 23 24  1  0  0  0  0
 23 27  1  0  0  0  0
 24 25  1  0  0  0  0
 25 26  2  0  0  0  0
 27 28  2  0  0  0  0
 27 29  1  0  0  0  0
 29 30  1  0  0  0  0
 30 31  2  0  0  0  0
 30 32  2  0  0  0  0
 30 33  1  0  0  0  0
 33 34  1  0  0  0  0
 33 35  1  0  0  0  0
 34 35  1  0  0  0  0
 36 37  1  0  0  0  0
 37 38  2  0  0  0  0
 37 39  1  0  0  0  0
 39 40  1  0  0  0  0
 40 41  1  0  0  0  0
 40 42  1  0  0  0  0
 40 43  1  0  0  0  0
 44 45  2  0  0  0  0
 45 46  1  0  0  0  0
 45 52  1  0  0  0  0
 46 47  2  0  0  0  0
 47 48  1  0  0  0  0
 47 50  1  0  0  0  0
 48 49  1  0  0  0  0
 50 51  2  0  0  0  0
 51 52  1  0  0  0  0
 52 53  2  0  0  0  0
M  END
>  <InstanceId>
5EPN_5R2_A_1203

>  <ChemCompId>
5R2

>  <PdbId>
5EPN

>  <ChainId>
A

>  <ResidueNumber>
1203

>  <InsertionCode>


>  <Model>
1

>  <AltIds>


>  <MissingHeavyAtoms>
0

>  <ObservedFormula>
C37 N6 O9 S

>  <Name>
2-Methyl-2-propanyl {(2R,6S,12Z,13aS,14aR,16aS)-14a-[(cyclopropylsulfonyl)carbamoyl]-2-[(3-ethyl-7-methoxy-2-quinoxalinyl)oxy]-5,16-dioxo-1,2,3,5,6,7,8,9,10,11,13a,14,14a,15,16,16a-hexadecahydrocyclop ropa[e]pyrrolo[1,2-a][1,4]diazacyclopentadecin-6-yl}carbamate

>  <SystematicName>


>  <Synonyms>
MK-5172 P1-P3 macrocyclic analogue

>  <Type>
NON-POLYMER

>  <Formula>
C37 H50 N6 O9 S

>  <MolecularWeight>
754.893

>  <ModifiedDate>
2016-01-08

>  <Parent>


>  <OneLetterCode>


>  <SubcomponentList>


>  <AmbiguousFlag>
N

>  <InChI>
InChI=1S/C37H50N6O9S/c1-6-26-32(39-29-18-23(50-5)14-17-27(29)38-26)51-24-19-30-31(44)41-37(34(46)42-53(48,49)25-15-16-25)20-22(37)12-10-8-7-9-11-13-28(33(45)43(30)21-24)40-35(47)52-36(2,3)4/h10,12,14,17-18,22,24-25,28,30H,6-9,11,13,15-16,19-21H2,1-5H3,(H,40,47)(H,41,44)(H,42,46)/b12-10+/t22-,24+,28-,30-,37+/m0/s1

>  <InChIKey>
YCYCBCSJYGZXLL-GTGBOCSISA-N

>  <SMILES>
CCc1c(nc2cc(ccc2n1)OC)O[C@@H]3C[C@H]4C(=O)N[C@@]5(C[C@@H]5/C=C/CCCCC[C@@H](C(=O)N4C3)NC(=O)OC(C)(C)C)C(=O)NS(=O)(=O)C6CC6

$$$$
