4KMZ_FOL_A_301
  RCSB PDB08012022163D
Coordinates from PDB:4KMZ:A:301 Model:1 without hydrogens
 32 34  0  0  0  0            999 V2000
   36.9660   49.3040   52.1120   N 0  0  0  0  0  0  0  0  0  0  0  0
   36.4320   49.4830   53.3730   C 0  0  0  0  0  0  0  0  0  0  0  0
   37.1340   50.1320   54.3050   N 0  0  0  0  0  0  0  0  0  0  0  0
   35.1770   48.9850   53.6730   N 0  0  0  0  0  0  0  0  0  0  0  0
   34.4410   48.3080   52.7180   C 0  0  0  0  0  0  0  0  0  0  0  0
   33.3250   47.8520   52.9830   O 0  0  0  0  0  0  0  0  0  0  0  0
   34.9750   48.1300   51.4470   C 0  0  0  0  0  0  0  0  0  0  0  0
   34.2400   47.4580   50.4890   N 0  0  0  0  0  0  0  0  0  0  0  0
   34.7800   47.2790   49.2270   C 0  0  0  0  0  0  0  0  0  0  0  0
   36.0500   47.7810   48.9280   C 0  0  0  0  0  0  0  0  0  0  0  0
   36.7830   48.4570   49.8840   N 0  0  0  0  0  0  0  0  0  0  0  0
   36.2450   48.6290   51.1460   C 0  0  0  0  0  0  0  0  0  0  0  0
   33.9850   46.5620   48.1560   C 0  0  0  0  0  0  0  0  0  0  0  0
   33.3340   47.6190   47.3860   N 0  0  0  0  0  0  0  0  0  0  0  0
   29.8710   47.2070   45.1540   C 0  0  0  0  0  0  0  0  0  0  0  0
   30.5440   46.0720   45.6030   C 0  0  0  0  0  0  0  0  0  0  0  0
   31.7100   46.2010   46.3580   C 0  0  0  0  0  0  0  0  0  0  0  0
   32.2210   47.4640   46.6620   C 0  0  0  0  0  0  0  0  0  0  0  0
   31.5460   48.5980   46.2140   C 0  0  0  0  0  0  0  0  0  0  0  0
   30.3720   48.4710   45.4620   C 0  0  0  0  0  0  0  0  0  0  0  0
   28.6000   47.0700   44.3500   C 0  0  0  0  0  0  0  0  0  0  0  0
   28.4740   46.0340   43.3920   O 0  0  0  0  0  0  0  0  0  0  0  0
   27.6250   47.9580   44.5750   N 0  0  0  0  0  0  0  0  0  0  0  0
   26.2910   47.8610   44.0270   C 0  0  0  0  0  0  0  0  0  0  0  0
   25.3150   47.2210   45.0230   C 0  0  0  0  0  0  0  0  0  0  0  0
   25.8090   45.8830   45.5710   C 0  0  0  0  0  0  0  0  0  0  0  0
   24.7670   45.1910   46.4280   C 0  0  0  0  0  0  0  0  0  0  0  0
   23.8760   44.4750   45.8930   O 0  0  0  0  0  0  0  0  0  0  0  0
   24.7900   45.3020   47.6830   O 0  0  0  0  0  0  0  0  0  0  0  0
   25.8090   49.2420   43.6610   C 0  0  0  0  0  0  0  0  0  0  0  0
   26.5090   49.9910   42.9250   O 0  0  0  0  0  0  0  0  0  0  0  0
   24.7010   49.6600   44.0850   O 0  0  0  0  0  0  0  0  0  0  0  0
  1  2  1  0  0  0  0
  1 12  1  0  0  0  0
  2  3  1  0  0  0  0
  2  4  2  0  0  0  0
  4  5  1  0  0  0  0
  5  6  2  0  0  0  0
  5  7  1  0  0  0  0
  7  8  1  0  0  0  0
  7 12  2  0  0  0  0
  8  9  2  0  0  0  0
  9 10  1  0  0  0  0
  9 13  1  0  0  0  0
 10 11  2  0  0  0  0
 11 12  1  0  0  0  0
 13 14  1  0  0  0  0
 14 18  1  0  0  0  0
 15 16  2  0  0  0  0
 15 20  1  0  0  0  0
 15 21  1  0  0  0  0
 16 17  1  0  0  0  0
 17 18  2  0  0  0  0
 18 19  1  0  0  0  0
 19 20  2  0  0  0  0
 21 22  2  0  0  0  0
 21 23  1  0  0  0  0
 23 24  1  0  0  0  0
 24 25  1  0  0  0  0
 24 30  1  0  0  0  0
 25 26  1  0  0  0  0
 26 27  1  0  0  0  0
 27 28  2  0  0  0  0
 27 29  1  0  0  0  0
 30 31  2  0  0  0  0
 30 32  1  0  0  0  0
M  END
>  <InstanceId>
4KMZ_FOL_A_301

>  <ChemCompId>
FOL

>  <PdbId>
4KMZ

>  <ChainId>
A

>  <ResidueNumber>
301

>  <InsertionCode>


>  <Model>
1

>  <AltIds>


>  <MissingHeavyAtoms>
0

>  <ObservedFormula>
C19 N7 O6

>  <Name>
FOLIC ACID

>  <SystematicName>
(2S)-2-[[4-[(2-amino-4-oxo-1H-pteridin-6-yl)methylamino]phenyl]carbonylamino]pentanedioic acid

>  <Synonyms>


>  <Type>
NON-POLYMER

>  <Formula>
C19 H19 N7 O6

>  <MolecularWeight>
441.397

>  <ModifiedDate>
2011-06-04

>  <Parent>


>  <OneLetterCode>


>  <SubcomponentList>


>  <AmbiguousFlag>
N

>  <InChI>
InChI=1S/C19H19N7O6/c20-19-25-15-14(17(30)26-19)23-11(8-22-15)7-21-10-3-1-9(2-4-10)16(29)24-12(18(31)32)5-6-13(27)28/h1-4,8,12,21H,5-7H2,(H,24,29)(H,27,28)(H,31,32)(H3,20,22,25,26,30)/t12-/m0/s1

>  <InChIKey>
OVBPIULPVIDEAO-LBPRGKRZSA-N

>  <SMILES>
c1cc(ccc1C(=O)N[C@@H](CCC(=O)O)C(=O)O)NCc2cnc3c(n2)C(=O)N=C(N3)N

$$$$
