1EC1_BEE_A_501
  RCSB PDB08012014493D
Coordinates from PDB:1EC1:A:501 Model:1 without hydrogens
 54 57  0  0  0  0            999 V2000
    9.6990   24.1970    2.0210   C 0  0  0  0  0  0  0  0  0  0  0  0
    8.8750   25.3280    1.7780   C 0  0  0  0  0  0  0  0  0  0  0  0
    7.4870   25.2680    2.0450   C 0  0  0  0  0  0  0  0  0  0  0  0
    6.9240   24.0700    2.5610   C 0  0  0  0  0  0  0  0  0  0  0  0
    7.7450   22.9490    2.8020   C 0  0  0  0  0  0  0  0  0  0  0  0
    9.1320   23.0130    2.5310   C 0  0  0  0  0  0  0  0  0  0  0  0
   16.1290   22.2560    8.4860   C 0  0  0  0  0  0  0  0  0  0  0  0
   15.2880   21.3820    9.2560   C 0  0  0  0  0  0  0  0  0  0  0  0
   15.8300   20.2190    9.8780   C 0  0  0  0  0  0  0  0  0  0  0  0
   17.2070   19.9410    9.7230   C 0  0  0  0  0  0  0  0  0  0  0  0
   18.0500   20.8170    8.9500   C 0  0  0  0  0  0  0  0  0  0  0  0
   17.5070   21.9760    8.3300   C 0  0  0  0  0  0  0  0  0  0  0  0
   15.5360   23.4680    7.8280   C 0  0  0  0  0  0  0  0  0  0  0  0
   14.4830   23.0790    6.8890   O 0  0  0  0  0  0  0  0  0  0  0  0
   14.9750   22.6310    5.6020   C 0  0  0  0  0  0  0  0  0  0  0  0
   13.9660   23.0370    4.5340   C 0  0  0  0  0  0  0  0  0  0  0  0
   13.6090   24.4890    4.6210   C 0  0  0  0  0  0  0  0  0  0  0  0
   12.2440   24.7750    3.9330   C 0  0  0  0  0  0  0  0  0  0  0  0
   11.1130   24.7390    4.9470   C 0  0  0  0  0  0  0  0  0  0  0  0
   10.8580   23.6700    5.5050   O 0  0  0  0  0  0  0  0  0  0  0  0
   10.4450   25.8700    5.1860   N 0  0  0  0  0  0  0  0  0  0  0  0
    9.3130   26.0080    6.1470   C 0  0  0  0  0  0  0  0  0  0  0  0
    9.7950   26.6620    7.5070   C 0  0  0  0  0  0  0  0  0  0  0  0
    8.6220   26.8450    8.5390   C 0  0  0  0  0  0  0  0  0  0  0  0
   10.9290   25.8670    8.2170   C 0  0  0  0  0  0  0  0  0  0  0  0
    8.3280   26.9390    5.4710   C 0  0  0  0  0  0  0  0  0  0  0  0
    8.7550   27.9790    4.9110   O 0  0  0  0  0  0  0  0  0  0  0  0
    7.0060   26.5550    5.5290   N 0  0  0  0  0  0  0  0  0  0  0  0
    6.0290   27.4130    4.9020   C 0  0  0  0  0  0  0  0  0  0  0  0
   11.9830   23.7760    2.8750   O 0  0  0  0  0  0  0  0  0  0  0  0
   11.1740   24.2640    1.7440   C 0  0  0  0  0  0  0  0  0  0  0  0
   14.7300   25.2090    4.0680   O 0  0  0  0  0  0  0  0  0  0  0  0
   14.4920   22.6890    3.2060   O 0  0  0  0  0  0  0  0  0  0  0  0
   15.1860   21.1770    5.4980   C 0  0  0  0  0  0  0  0  0  0  0  0
   14.2600   20.4330    5.8250   O 0  0  0  0  0  0  0  0  0  0  0  0
   16.3780   20.7550    5.0390   N 0  0  0  0  0  0  0  0  0  0  0  0
   16.7070   19.3610    4.8750   C 0  0  0  0  0  0  0  0  0  0  0  0
   16.7420   18.9890    3.3390   C 0  0  0  0  0  0  0  0  0  0  0  0
   15.3530   19.1990    2.6090   C 0  0  0  0  0  0  0  0  0  0  0  0
   17.2320   17.5220    3.0970   C 0  0  0  0  0  0  0  0  0  0  0  0
   18.0850   19.2010    5.4630   C 0  0  0  0  0  0  0  0  0  0  0  0
   19.0310   19.9390    5.0590   O 0  0  0  0  0  0  0  0  0  0  0  0
   18.1920   18.2380    6.3980   N 0  0  0  0  0  0  0  0  0  0  0  0
   19.5140   18.0360    6.9900   C 0  0  0  0  0  0  0  0  0  0  0  0
    2.8320   24.2220    2.6690   S 0  0  0  0  0  0  0  0  0  0  0  0
    3.5320   23.3990    4.0830   C 0  0  0  0  0  0  0  0  0  0  0  0
    4.8620   23.3490    4.0530   C 0  0  0  0  0  0  0  0  0  0  0  0
    5.4290   23.9890    2.8530   C 0  0  0  0  0  0  0  0  0  0  0  0
    4.4780   24.4830    2.0530   C 0  0  0  0  0  0  0  0  0  0  0  0
   19.4380   17.0920   11.6130   S 0  0  0  0  0  0  0  0  0  0  0  0
   19.0340   18.6610   10.8970   C 0  0  0  0  0  0  0  0  0  0  0  0
   17.8000   18.7100   10.3870   C 0  0  0  0  0  0  0  0  0  0  0  0
   17.0800   17.4330   10.5500   C 0  0  0  0  0  0  0  0  0  0  0  0
   17.8140   16.5110   11.1690   C 0  0  0  0  0  0  0  0  0  0  0  0
  1  2  2  0  0  0  0
  1  6  1  0  0  0  0
  1 31  1  0  0  0  0
  2  3  1  0  0  0  0
  3  4  2  0  0  0  0
  4  5  1  0  0  0  0
  4 48  1  0  0  0  0
  5  6  2  0  0  0  0
  7  8  2  0  0  0  0
  7 12  1  0  0  0  0
  7 13  1  0  0  0  0
  8  9  1  0  0  0  0
  9 10  2  0  0  0  0
 10 11  1  0  0  0  0
 10 52  1  0  0  0  0
 11 12  2  0  0  0  0
 13 14  1  0  0  0  0
 14 15  1  0  0  0  0
 15 16  1  0  0  0  0
 15 34  1  0  0  0  0
 16 17  1  0  0  0  0
 16 33  1  0  0  0  0
 17 18  1  0  0  0  0
 17 32  1  0  0  0  0
 18 19  1  0  0  0  0
 18 30  1  0  0  0  0
 19 20  2  0  0  0  0
 19 21  1  0  0  0  0
 21 22  1  0  0  0  0
 22 23  1  0  0  0  0
 22 26  1  0  0  0  0
 23 24  1  0  0  0  0
 23 25  1  0  0  0  0
 26 27  2  0  0  0  0
 26 28  1  0  0  0  0
 28 29  1  0  0  0  0
 30 31  1  0  0  0  0
 34 35  2  0  0  0  0
 34 36  1  0  0  0  0
 36 37  1  0  0  0  0
 37 38  1  0  0  0  0
 37 41  1  0  0  0  0
 38 39  1  0  0  0  0
 38 40  1  0  0  0  0
 41 42  2  0  0  0  0
 41 43  1  0  0  0  0
 43 44  1  0  0  0  0
 45 46  1  0  0  0  0
 45 49  1  0  0  0  0
 46 47  2  0  0  0  0
 47 48  1  0  0  0  0
 48 49  2  0  0  0  0
 50 51  1  0  0  0  0
 50 54  1  0  0  0  0
 51 52  2  0  0  0  0
 52 53  1  0  0  0  0
 53 54  2  0  0  0  0
M  END
>  <InstanceId>
1EC1_BEE_A_501

>  <ChemCompId>
BEE

>  <PdbId>
1EC1

>  <ChainId>
A

>  <ResidueNumber>
501

>  <InsertionCode>


>  <Model>
1

>  <AltIds>


>  <MissingHeavyAtoms>
0

>  <ObservedFormula>
C40 N4 O8 S2

>  <Name>
N,N-[2,5-O-[DI-4-THIOPHEN-3-YL-BENZYL]-GLUCARYL]-DI-[VALYL-AMIDO-METHANE]

>  <SystematicName>
(2R,3R,4R,5R)-3,4-dihydroxy-N,N'-bis[(2S)-3-methyl-1-methylamino-1-oxo-butan-2-yl]-2,5-bis[(4-thiophen-3-ylphenyl)methoxy]hexanediamide

>  <Synonyms>
INHIBITOR BEA409

>  <Type>
NON-POLYMER

>  <Formula>
C40 H50 N4 O8 S2

>  <MolecularWeight>
778.977

>  <ModifiedDate>
2011-06-04

>  <Parent>


>  <OneLetterCode>


>  <SubcomponentList>


>  <AmbiguousFlag>
N

>  <InChI>
InChI=1S/C40H50N4O8S2/c1-23(2)31(37(47)41-5)43-39(49)35(51-19-25-7-11-27(12-8-25)29-15-17-53-21-29)33(45)34(46)36(40(50)44-32(24(3)4)38(48)42-6)52-20-26-9-13-28(14-10-26)30-16-18-54-22-30/h7-18,21-24,31-36,45-46H,19-20H2,1-6H3,(H,41,47)(H,42,48)(H,43,49)(H,44,50)/t31-,32-,33+,34+,35+,36+/m0/s1

>  <InChIKey>
AJZAPEZJWWQJHC-UWNKZCSISA-N

>  <SMILES>
CC(C)[C@@H](C(=O)NC)NC(=O)[C@@H]([C@@H]([C@H]([C@H](C(=O)N[C@@H](C(C)C)C(=O)NC)OCc1ccc(cc1)c2ccsc2)O)O)OCc3ccc(cc3)c4ccsc4

$$$$
