5YH8_8UX_A_602
  RCSB PDB08022003443D
Coordinates from PDB:5YH8:A:602 Model:1 without hydrogens
 23 23  0  0  0  0            999 V2000
  -12.8200   23.6750  -15.8480   O 0  0  0  0  0  0  0  0  0  0  0  0
  -13.6240   23.8970  -16.7570   C 0  0  0  0  0  0  0  0  0  0  0  0
  -13.3420   24.4130  -17.8910   O 0  0  0  0  0  0  0  0  0  0  0  0
  -15.0630   23.4780  -16.4710   C 0  0  0  0  0  0  0  0  0  0  0  0
  -15.1660   22.1070  -15.7560   C 0  0  0  0  0  0  0  0  0  0  0  0
  -15.8290   23.4920  -17.7300   N 0  0  0  0  0  0  0  0  0  0  0  0
  -16.3020   22.2310  -18.4300   C 0  0  0  0  0  0  0  0  0  0  0  0
  -15.1680   21.5150  -19.1490   C 0  0  0  0  0  0  0  0  0  0  0  0
  -15.3260   20.3040  -19.4390   O 0  0  0  0  0  0  0  0  0  0  0  0
  -14.2400   22.2470  -19.5250   O 0  0  0  0  0  0  0  0  0  0  0  0
  -17.4040   22.4200  -19.4870   C 0  0  0  0  0  0  0  0  0  0  0  0
  -17.4680   23.8610  -19.9920   C 0  0  0  0  0  0  0  0  0  0  0  0
  -16.3360   24.2090  -20.8780   N 0  0  0  0  0  0  0  0  0  0  0  0
  -16.1820   25.6270  -21.2570   C 0  0  0  0  0  0  0  0  0  0  0  0
  -15.8450   26.5950  -20.0980   C 0  0  0  0  0  0  0  0  0  0  0  0
  -15.2960   26.1390  -19.0700   O 0  0  0  0  0  0  0  0  0  0  0  0
  -16.0840   27.8090  -20.3150   O 0  0  0  0  0  0  0  0  0  0  0  0
  -15.2110   25.7220  -22.4090   C 0  0  0  0  0  0  0  0  0  0  0  0
  -13.8120   25.2290  -22.0210   C 0  0  0  0  0  0  0  0  0  0  0  0
  -12.8390   25.1430  -22.9220   C 0  0  0  0  0  0  0  0  0  0  0  0
  -11.7720   24.6630  -22.3100   N 0  0  0  0  0  0  0  0  0  0  0  0
  -12.0580   24.4760  -21.0290   C 0  0  0  0  0  0  0  0  0  0  0  0
  -13.3430   24.8040  -20.8360   N 0  0  0  0  0  0  0  0  0  0  0  0
 20 21  1  0  0  0  0
 20 19  2  0  0  0  0
 18 19  1  0  0  0  0
 18 14  1  0  0  0  0
 21 22  1  0  0  0  0
 19 23  1  0  0  0  0
 14 13  1  0  0  0  0
 14 15  1  0  0  0  0
 22 23  2  0  0  0  0
 13 12  1  0  0  0  0
 17 15  2  0  0  0  0
 15 16  1  0  0  0  0
 12 11  1  0  0  0  0
 10  8  2  0  0  0  0
 11  7  1  0  0  0  0
  9  8  1  0  0  0  0
  8  7  1  0  0  0  0
  7  6  1  0  0  0  0
  3  2  2  0  0  0  0
  6  4  1  0  0  0  0
  2  4  1  0  0  0  0
  2  1  1  0  0  0  0
  4  5  1  0  0  0  0
M  END
>  <InstanceId>
5YH8_8UX_A_602

>  <ChemCompId>
8UX

>  <PdbId>
5YH8

>  <ChainId>
A

>  <ResidueNumber>
602

>  <InsertionCode>


>  <Model>
1

>  <AltIds>


>  <MissingHeavyAtoms>
0

>  <ObservedFormula>
C13 N4 O6

>  <Name>
(2~{S})-4-[[(2~{R})-3-(1~{H}-imidazol-4-yl)-1-oxidanyl-1-oxidanylidene-propan-2-yl]amino]-2-[[(2~{S})-1-oxidanyl-1-oxidanylidene-propan-2-yl]amino]butanoic acid

>  <SystematicName>
(2~{S})-4-[[(2~{R})-3-(1~{H}-imidazol-4-yl)-1-oxidanyl-1-oxidanylidene-propan-2-yl]amino]-2-[[(2~{S})-1-oxidanyl-1-oxidanylidene-propan-2-yl]amino]butanoic acid

>  <Synonyms>
staphylopine

>  <Type>
NON-POLYMER

>  <Formula>
C13 H20 N4 O6

>  <MolecularWeight>
328.321

>  <ModifiedDate>
2018-03-23

>  <Parent>


>  <OneLetterCode>


>  <SubcomponentList>


>  <AmbiguousFlag>
N

>  <InChI>
InChI=1S/C13H20N4O6/c1-7(11(18)19)17-9(12(20)21)2-3-15-10(13(22)23)4-8-5-14-6-16-8/h5-7,9-10,15,17H,2-4H2,1H3,(H,14,16)(H,18,19)(H,20,21)(H,22,23)/t7-,9-,10+/m0/s1

>  <InChIKey>
WLNNYKMTYVPSDL-UJNFCWOMSA-N

>  <SMILES>
C[C@@H](C(=O)O)N[C@@H](CCN[C@H](Cc1c[nH]cn1)C(=O)O)C(=O)O

$$$$
