4ARB_C57_A_1543
  RCSB PDB08012021083D
Coordinates from PDB:4ARB:A:1543 Model:1 without hydrogens
 25 26  0  0  0  0            999 V2000
   30.5770   21.0240   11.1770   O 0  0  0  0  0  0  0  0  0  0  0  0
   30.9890   22.1370   10.9710   C 0  0  0  0  0  0  0  0  0  0  0  0
   31.9960   22.3470    9.8600   C 0  0  0  0  0  0  0  0  0  0  0  0
   33.0620   23.2840    9.9760   C 0  0  0  0  0  0  0  0  0  0  0  0
   33.2060   24.0650   11.1010   O 0  0  0  0  0  0  0  0  0  0  0  0
   34.2160   25.0170   11.1320   C 0  0  0  0  0  0  0  0  0  0  0  0
   34.0100   23.4510    8.9120   C 0  0  0  0  0  0  0  0  0  0  0  0
   33.9260   22.6920    7.7600   C 0  0  0  0  0  0  0  0  0  0  0  0
   34.9890   22.9920    6.7270   N 0  0  0  0  0  0  0  0  0  0  0  0
   36.0950   23.8850    7.0850   C 0  0  0  0  0  0  0  0  0  0  0  0
   34.9400   22.4440    5.3500   C 0  0  0  0  0  0  0  0  0  0  0  0
   32.8290   21.7270    7.6360   C 0  0  0  0  0  0  0  0  0  0  0  0
   32.6130   20.8680    6.5040   N 0  3  0  0  0  0  0  0  0  0  0  0
   31.5700   21.0300    5.7330   O 0  5  0  0  0  0  0  0  0  0  0  0
   33.4130   19.9520    6.2590   O 0  0  0  0  0  0  0  0  0  0  0  0
   31.9020   21.5700    8.6930   C 0  0  0  0  0  0  0  0  0  0  0  0
   30.5460   23.2250   11.8110   N 0  0  0  0  0  0  0  0  0  0  0  0
   29.5990   23.0420   12.9140   C 0  0  0  0  0  0  0  0  0  0  0  0
   27.7360   20.9420   14.2460   C 0  0  0  0  0  0  0  0  0  0  0  0
   27.4820   22.3800   13.9920   C 0  0  0  0  0  0  0  0  0  0  0  0
   28.1470   22.6350   12.6880   C 0  0  0  0  0  0  0  0  0  0  0  0
   27.9420   21.4060   11.9370   N 0  0  0  0  0  0  0  0  0  0  0  0
   27.1640   21.2270   10.7240   C 0  0  0  0  0  0  0  0  0  0  0  0
   27.8420   20.3280   12.8940   C 0  0  0  0  0  0  0  0  0  0  0  0
   27.6230   21.9940    9.4770   C 0  0  0  0  0  0  0  0  0  0  0  0
  1  2  2  0  0  0  0
  2  3  1  0  0  0  0
  2 17  1  0  0  0  0
  3  4  1  0  0  0  0
  3 16  2  0  0  0  0
 12 16  1  0  0  0  0
  4  5  1  0  0  0  0
  4  7  2  0  0  0  0
  5  6  1  0  0  0  0
  7  8  1  0  0  0  0
  8  9  1  0  0  0  0
  8 12  2  0  0  0  0
  9 10  1  0  0  0  0
  9 11  1  0  0  0  0
 12 13  1  0  0  0  0
 13 14  1  0  0  0  0
 13 15  2  0  0  0  0
 17 18  1  0  0  0  0
 18 21  1  0  0  0  0
 19 20  1  0  0  0  0
 19 24  1  0  0  0  0
 20 21  1  0  0  0  0
 21 22  1  0  0  0  0
 22 23  1  0  0  0  0
 22 24  1  0  0  0  0
 23 25  1  0  0  0  0
M  CHG  2  13   1  14  -1
M  END
>  <InstanceId>
4ARB_C57_A_1543

>  <ChemCompId>
C57

>  <PdbId>
4ARB

>  <ChainId>
A

>  <ResidueNumber>
1543

>  <InsertionCode>


>  <Model>
1

>  <AltIds>


>  <MissingHeavyAtoms>
0

>  <ObservedFormula>
C17 N4 O4

>  <Name>
4-(DIMETHYLAMINO)-N-{[(2S)-1-ETHYLPYRROLIDIN-2-YL]METHYL}-2-METHOXY-5-NITROBENZAMIDE

>  <SystematicName>
4-(dimethylamino)-N-[[(2S)-1-ethylpyrrolidin-2-yl]methyl]-2-methoxy-5-nitro-benzamide

>  <Synonyms>


>  <Type>
NON-POLYMER

>  <Formula>
C17 H26 N4 O4

>  <MolecularWeight>
350.413

>  <ModifiedDate>
2014-09-05

>  <Parent>


>  <OneLetterCode>


>  <SubcomponentList>


>  <AmbiguousFlag>
N

>  <InChI>
InChI=1S/C17H26N4O4/c1-5-20-8-6-7-12(20)11-18-17(22)13-9-15(21(23)24)14(19(2)3)10-16(13)25-4/h9-10,12H,5-8,11H2,1-4H3,(H,18,22)/t12-/m0/s1

>  <InChIKey>
AFNPLUMDSLEAPD-LBPRGKRZSA-N

>  <SMILES>
CCN1CCC[C@H]1CNC(=O)c2cc(c(cc2OC)N(C)C)[N+](=O)[O-]

$$$$
