6EYT_UDP_A_404
  RCSB PDB08022004353D
Coordinates from PDB:6EYT:A:404 Model:1 without hydrogens
 25 26  0  0  0  0            999 V2000
  -12.2850   -9.6080  -29.9990   N 0  0  0  0  0  0  0  0  0  0  0  0
  -11.6900  -10.2030  -28.9070   C 0  0  0  0  0  0  0  0  0  0  0  0
  -12.3420  -11.2990  -28.4150   N 0  0  0  0  0  0  0  0  0  0  0  0
  -13.5070  -11.8580  -28.9000   C 0  0  0  0  0  0  0  0  0  0  0  0
  -14.0600  -11.1960  -30.0350   C 0  0  0  0  0  0  0  0  0  0  0  0
  -13.4440  -10.1110  -30.5430   C 0  0  0  0  0  0  0  0  0  0  0  0
  -10.6580   -9.7860  -28.4030   O 0  0  0  0  0  0  0  0  0  0  0  0
  -13.9750  -12.8670  -28.3480   O 0  0  0  0  0  0  0  0  0  0  0  0
  -11.6160   -8.4310  -30.5780   C 0  0  0  0  0  0  0  0  0  0  0  0
  -10.4810   -8.8020  -31.5450   C 0  0  0  0  0  0  0  0  0  0  0  0
   -9.4200   -7.8670  -31.4010   O 0  0  0  0  0  0  0  0  0  0  0  0
  -11.1520   -8.6270  -32.9060   C 0  0  0  0  0  0  0  0  0  0  0  0
  -12.0640   -7.4390  -32.6460   C 0  0  0  0  0  0  0  0  0  0  0  0
  -12.5660   -7.6750  -31.3140   O 0  0  0  0  0  0  0  0  0  0  0  0
  -10.1880   -8.3380  -33.9130   O 0  0  0  0  0  0  0  0  0  0  0  0
  -13.2140   -7.2730  -33.6070   C 0  0  0  0  0  0  0  0  0  0  0  0
  -13.7100   -8.5790  -33.9790   O 0  0  0  0  0  0  0  0  0  0  0  0
  -14.7820   -8.7560  -35.1330   P 0  0  0  0  0  0  0  0  0  0  0  0
  -14.2440   -8.0750  -36.3370   O 0  0  0  0  0  0  0  0  0  0  0  0
  -15.1750  -10.2270  -35.2930   O 0  0  0  0  0  0  0  0  0  0  0  0
  -16.0770   -7.9970  -34.5980   O 0  0  0  0  0  0  0  0  0  0  0  0
  -16.8560   -6.8210  -35.3270   P 0  0  0  0  0  0  0  0  0  0  0  0
  -16.1330   -6.3160  -36.5060   O 0  0  0  0  0  0  0  0  0  0  0  0
  -17.0240   -5.7740  -34.2200   O 0  0  0  0  0  0  0  0  0  0  0  0
  -18.2140   -7.4520  -35.6400   O 0  0  0  0  0  0  0  0  0  0  0  0
  1  2  1  0  0  0  0
  1  6  1  0  0  0  0
  1  9  1  0  0  0  0
  2  3  1  0  0  0  0
  2  7  2  0  0  0  0
  3  4  1  0  0  0  0
  4  5  1  0  0  0  0
  4  8  2  0  0  0  0
  5  6  2  0  0  0  0
  9 10  1  0  0  0  0
  9 14  1  0  0  0  0
 10 11  1  0  0  0  0
 10 12  1  0  0  0  0
 12 13  1  0  0  0  0
 12 15  1  0  0  0  0
 13 14  1  0  0  0  0
 13 16  1  0  0  0  0
 16 17  1  0  0  0  0
 17 18  1  0  0  0  0
 18 19  2  0  0  0  0
 18 20  1  0  0  0  0
 18 21  1  0  0  0  0
 21 22  1  0  0  0  0
 22 23  2  0  0  0  0
 22 24  1  0  0  0  0
 22 25  1  0  0  0  0
M  END
>  <InstanceId>
6EYT_UDP_A_404

>  <ChemCompId>
UDP

>  <PdbId>
6EYT

>  <ChainId>
A

>  <ResidueNumber>
404

>  <InsertionCode>


>  <Model>
1

>  <AltIds>


>  <MissingHeavyAtoms>
0

>  <ObservedFormula>
C9 N2 O12 P2

>  <Name>
URIDINE-5'-DIPHOSPHATE

>  <SystematicName>
[(2R,3S,4R,5R)-5-(2,4-dioxopyrimidin-1-yl)-3,4-dihydroxy-oxolan-2-yl]methyl phosphono hydrogen phosphate

>  <Synonyms>


>  <Type>
RNA LINKING

>  <Formula>
C9 H14 N2 O12 P2

>  <MolecularWeight>
404.161

>  <ModifiedDate>
2011-06-04

>  <Parent>


>  <OneLetterCode>
N

>  <SubcomponentList>


>  <AmbiguousFlag>
N

>  <InChI>
InChI=1S/C9H14N2O12P2/c12-5-1-2-11(9(15)10-5)8-7(14)6(13)4(22-8)3-21-25(19,20)23-24(16,17)18/h1-2,4,6-8,13-14H,3H2,(H,19,20)(H,10,12,15)(H2,16,17,18)/t4-,6-,7-,8-/m1/s1

>  <InChIKey>
XCCTYIAWTASOJW-XVFCMESISA-N

>  <SMILES>
C1=CN(C(=O)NC1=O)[C@H]2[C@@H]([C@@H]([C@H](O2)CO[P@@](=O)(O)OP(=O)(O)O)O)O

$$$$
