1WS1_BB2_A_400
  RCSB PDB08012016193D
Coordinates from PDB:1WS1:A:400 Model:1 without hydrogens
 27 27  0  0  0  0            999 V2000
   -4.9730   44.3770   55.2300   C 0  0  0  0  0  0  0  0  0  0  0  0
   -4.4200   44.0440   53.8400   C 0  0  0  0  0  0  0  0  0  0  0  0
   -4.4140   44.9500   53.0380   O 0  0  0  0  0  0  0  0  0  0  0  0
   -4.0010   42.8200   53.5250   N 0  0  0  0  0  0  0  0  0  0  0  0
   -3.5700   42.5550   52.3880   O 0  0  0  0  0  0  0  0  0  0  0  0
   -6.5650   44.3290   55.0840   C 0  0  0  0  0  0  0  0  0  0  0  0
   -7.3070   44.9290   56.2760   C 0  0  0  0  0  0  0  0  0  0  0  0
   -7.0000   44.6240   57.4030   O 0  0  0  0  0  0  0  0  0  0  0  0
   -7.0070   42.8300   54.9920   C 0  0  0  0  0  0  0  0  0  0  0  0
   -8.5320   42.9080   54.7410   C 0  0  0  0  0  0  0  0  0  0  0  0
   -9.1510   41.6190   54.5510   C 0  0  0  0  0  0  0  0  0  0  0  0
  -10.5730   41.7530   54.0230   C 0  0  0  0  0  0  0  0  0  0  0  0
  -11.5180   42.3420   55.0060   C 0  0  0  0  0  0  0  0  0  0  0  0
   -8.2950   45.8170   55.9570   N 0  0  0  0  0  0  0  0  0  0  0  0
   -9.1130   46.5460   56.9020   C 0  0  0  0  0  0  0  0  0  0  0  0
   -8.8170   48.0510   56.9830   C 0  0  0  0  0  0  0  0  0  0  0  0
   -8.7580   48.6800   55.6450   C 0  0  0  0  0  0  0  0  0  0  0  0
   -7.4890   48.2190   57.6940   C 0  0  0  0  0  0  0  0  0  0  0  0
  -10.5900   46.2420   56.5180   C 0  0  0  0  0  0  0  0  0  0  0  0
  -10.8830   46.1010   55.3110   O 0  0  0  0  0  0  0  0  0  0  0  0
  -11.5180   46.1150   57.4910   N 0  0  0  0  0  0  0  0  0  0  0  0
  -12.9250   45.8040   57.1800   C 0  0  0  0  0  0  0  0  0  0  0  0
  -11.3130   46.2470   58.9630   C 0  0  0  0  0  0  0  0  0  0  0  0
  -12.6880   46.0030   59.5370   C 0  0  0  0  0  0  0  0  0  0  0  0
  -13.4500   45.2600   58.4990   C 0  0  0  0  0  0  0  0  0  0  0  0
  -13.7070   47.0270   56.7600   C 0  0  0  0  0  0  0  0  0  0  0  0
  -13.5340   47.3590   55.5740   O 0  0  0  0  0  0  0  0  0  0  0  0
  1  2  1  0  0  0  0
  1  6  1  0  0  0  0
  2  3  2  0  0  0  0
  2  4  1  0  0  0  0
  4  5  1  0  0  0  0
  6  7  1  0  0  0  0
  6  9  1  0  0  0  0
  7  8  2  0  0  0  0
  7 14  1  0  0  0  0
  9 10  1  0  0  0  0
 10 11  1  0  0  0  0
 11 12  1  0  0  0  0
 12 13  1  0  0  0  0
 14 15  1  0  0  0  0
 15 16  1  0  0  0  0
 15 19  1  0  0  0  0
 16 17  1  0  0  0  0
 16 18  1  0  0  0  0
 19 20  2  0  0  0  0
 19 21  1  0  0  0  0
 21 22  1  0  0  0  0
 21 23  1  0  0  0  0
 22 25  1  0  0  0  0
 22 26  1  0  0  0  0
 23 24  1  0  0  0  0
 24 25  1  0  0  0  0
 26 27  1  0  0  0  0
M  END
>  <InstanceId>
1WS1_BB2_A_400

>  <ChemCompId>
BB2

>  <PdbId>
1WS1

>  <ChainId>
A

>  <ResidueNumber>
400

>  <InsertionCode>


>  <Model>
1

>  <AltIds>


>  <MissingHeavyAtoms>
0

>  <ObservedFormula>
C19 N3 O5

>  <Name>
ACTINONIN

>  <SystematicName>
(2R)-N'-hydroxy-N-[(2S)-1-[(2S)-2-(hydroxymethyl)pyrrolidin-1-yl]-3-methyl-1-oxo-butan-2-yl]-2-pentyl-butanediamide

>  <Synonyms>
2-[(FORMYL-HYDROXY-AMINO)-METHYL]-HEPTANOIC ACID [1-(2-HYDROXYMETHYL-PYRROLIDINE-1-CARBONYL)-2-METHYL-PROPYL]-AMIDE

>  <Type>
NON-POLYMER

>  <Formula>
C19 H35 N3 O5

>  <MolecularWeight>
385.498

>  <ModifiedDate>
2011-06-04

>  <Parent>


>  <OneLetterCode>


>  <SubcomponentList>


>  <AmbiguousFlag>
N

>  <InChI>
InChI=1S/C19H35N3O5/c1-4-5-6-8-14(11-16(24)21-27)18(25)20-17(13(2)3)19(26)22-10-7-9-15(22)12-23/h13-15,17,23,27H,4-12H2,1-3H3,(H,20,25)(H,21,24)/t14-,15+,17+/m1/s1

>  <InChIKey>
XJLATMLVMSFZBN-VYDXJSESSA-N

>  <SMILES>
CCCCC[C@H](CC(=O)NO)C(=O)N[C@@H](C(C)C)C(=O)N1CCC[C@H]1CO

$$$$
