4P6C_RES_A_500
  RCSB PDB08012022503D
Coordinates from PDB:4P6C:A:500 Model:1 without hydrogens
 14 13  0  0  0  0            999 V2000
   -8.2640    4.1710  -34.7270   O 0  0  0  0  0  0  0  0  0  0  0  0
   -8.3260    3.1180  -33.6430   P 0  0  0  0  0  0  0  0  0  0  0  0
   -6.9790    2.6290  -33.1720   O 0  0  0  0  0  0  0  0  0  0  0  0
   -9.2970    2.0080  -33.9850   O 0  0  0  0  0  0  0  0  0  0  0  0
   -8.9800    3.8210  -32.3530   O 0  0  0  0  0  0  0  0  0  0  0  0
   -9.1490    5.2280  -32.2390   C 0  0  0  0  0  0  0  0  0  0  0  0
   -9.9540    5.5050  -30.9780   C 0  0  0  0  0  0  0  0  0  0  0  0
  -11.2340    6.0330  -31.3210   O 0  0  0  0  0  0  0  0  0  0  0  0
  -10.1650    4.2030  -30.2320   C 0  0  0  0  0  0  0  0  0  0  0  0
   -9.0230    3.9640  -29.4230   O 0  0  0  0  0  0  0  0  0  0  0  0
  -11.3570    4.3090  -29.3390   C 0  0  0  0  0  0  0  0  0  0  0  0
  -12.4630    4.0870  -29.7900   O 0  0  0  0  0  0  0  0  0  0  0  0
  -11.1190    4.6390  -28.0730   N 0  0  0  0  0  0  0  0  0  0  0  0
  -12.1620    4.7310  -27.1540   O 0  0  0  0  0  0  0  0  0  0  0  0
  1  2  2  0  0  0  0
  2  3  1  0  0  0  0
  2  4  1  0  0  0  0
  2  5  1  0  0  0  0
  5  6  1  0  0  0  0
  6  7  1  0  0  0  0
  7  8  1  0  0  0  0
  7  9  1  0  0  0  0
  9 10  1  0  0  0  0
  9 11  1  0  0  0  0
 11 12  2  0  0  0  0
 11 13  1  0  0  0  0
 13 14  1  0  0  0  0
M  END
>  <InstanceId>
4P6C_RES_A_500

>  <ChemCompId>
RES

>  <PdbId>
4P6C

>  <ChainId>
A

>  <ResidueNumber>
500

>  <InsertionCode>


>  <Model>
1

>  <AltIds>


>  <MissingHeavyAtoms>
0

>  <ObservedFormula>
C4 N O8 P

>  <Name>
4-PHOSPHO-D-ERYTHRONOHYDROXAMIC ACID

>  <SystematicName>
[(2R,3R)-2,3-dihydroxy-4-(hydroxyamino)-4-oxo-butyl] dihydrogen phosphate

>  <Synonyms>


>  <Type>
NON-POLYMER

>  <Formula>
C4 H10 N O8 P

>  <MolecularWeight>
231.098

>  <ModifiedDate>
2011-06-04

>  <Parent>


>  <OneLetterCode>


>  <SubcomponentList>


>  <AmbiguousFlag>
N

>  <InChI>
InChI=1S/C4H10NO8P/c6-2(1-13-14(10,11)12)3(7)4(8)5-9/h2-3,6-7,9H,1H2,(H,5,8)(H2,10,11,12)/t2-,3-/m1/s1

>  <InChIKey>
JJQQOJRGUHNREK-PWNYCUMCSA-N

>  <SMILES>
C([C@H]([C@H](C(=O)NO)O)O)OP(=O)(O)O

$$$$
