5O5A_9LN_A_802
  RCSB PDB08022002383D
Coordinates from PDB:5O5A:A:802 Model:1 without hydrogens
 30 33  0  0  0  0            999 V2000
    6.1420   -9.5590    3.0750   C 0  0  0  0  0  0  0  0  0  0  0  0
   10.7720  -13.4260    8.7360   C 0  0  0  0  0  0  0  0  0  0  0  0
    7.5980   -8.7100   15.5950   C 0  0  0  0  0  0  0  0  0  0  0  0
    8.3310   -8.1560   14.5520   C 0  0  0  0  0  0  0  0  0  0  0  0
    7.5970  -10.0860   15.7960   C 0  0  0  0  0  0  0  0  0  0  0  0
    9.0640   -8.9800   13.7090   C 0  0  0  0  0  0  0  0  0  0  0  0
    8.3300  -10.9110   14.9530   C 0  0  0  0  0  0  0  0  0  0  0  0
    8.5850  -10.4900    7.0910   C 0  0  0  0  0  0  0  0  0  0  0  0
    7.7690  -10.6490    5.9570   C 0  0  0  0  0  0  0  0  0  0  0  0
   10.6690  -12.8340   12.2240   C 0  0  0  0  0  0  0  0  0  0  0  0
   10.2520  -11.8680    6.0950   C 0  0  0  0  0  0  0  0  0  0  0  0
   10.4590  -10.6980   12.0550   C 0  0  0  0  0  0  0  0  0  0  0  0
    6.1040  -10.9790    3.6350   C 0  0  0  0  0  0  0  0  0  0  0  0
   11.9110  -11.7700   10.2790   C 0  0  0  0  0  0  0  0  0  0  0  0
   10.6400  -10.9400    8.3430   C 0  0  0  0  0  0  0  0  0  0  0  0
   11.0160  -11.7700   11.5180   C 0  0  0  0  0  0  0  0  0  0  0  0
    9.8340  -11.1210    7.1890   C 0  0  0  0  0  0  0  0  0  0  0  0
    9.0620  -10.3550   13.9110   C 0  0  0  0  0  0  0  0  0  0  0  0
    9.1500  -12.9960    2.8020   C 0  0  0  0  0  0  0  0  0  0  0  0
    7.9070  -12.3750    2.7360   C 0  0  0  0  0  0  0  0  0  0  0  0
    9.4460  -12.0450    4.9740   C 0  0  0  0  0  0  0  0  0  0  0  0
    8.2000  -11.4330    4.8800   C 0  0  0  0  0  0  0  0  0  0  0  0
    9.8870  -12.3780   13.2040   N 0  0  0  0  0  0  0  0  0  0  0  0
    9.9230  -12.8210    3.9300   N 0  0  0  0  0  0  0  0  0  0  0  0
   11.0850  -12.0120    9.0840   N 0  0  0  0  0  0  0  0  0  0  0  0
    9.7660  -11.1410   13.1040   N 0  0  0  0  0  0  0  0  0  0  0  0
    7.4540  -11.6040    3.7580   N 0  0  0  0  0  0  0  0  0  0  0  0
   10.9070   -9.7940    8.6980   O 0  0  0  0  0  0  0  0  0  0  0  0
    9.5770  -13.7110    1.8860   O 0  0  0  0  0  0  0  0  0  0  0  0
    7.1990  -12.5250    1.7390   O 0  0  0  0  0  0  0  0  0  0  0  0
 30 20  2  0  0  0  0
 29 19  2  0  0  0  0
 20 19  1  0  0  0  0
 20 27  1  0  0  0  0
 19 24  1  0  0  0  0
  1 13  1  0  0  0  0
 13 27  1  0  0  0  0
 27 22  1  0  0  0  0
 24 21  1  0  0  0  0
 22 21  2  0  0  0  0
 22  9  1  0  0  0  0
 21 11  1  0  0  0  0
  9  8  2  0  0  0  0
 11 17  2  0  0  0  0
  8 17  1  0  0  0  0
 17 15  1  0  0  0  0
 15 28  2  0  0  0  0
 15 25  1  0  0  0  0
  2 25  1  0  0  0  0
 25 14  1  0  0  0  0
 14 16  1  0  0  0  0
 16 12  2  0  0  0  0
 16 10  1  0  0  0  0
 12 26  1  0  0  0  0
 10 23  2  0  0  0  0
 26 23  1  0  0  0  0
 26 18  1  0  0  0  0
  6 18  2  0  0  0  0
  6  4  1  0  0  0  0
 18  7  1  0  0  0  0
  4  3  2  0  0  0  0
  7  5  2  0  0  0  0
  3  5  1  0  0  0  0
M  END
>  <InstanceId>
5O5A_9LN_A_802

>  <ChemCompId>
9LN

>  <PdbId>
5O5A

>  <ChainId>
A

>  <ResidueNumber>
802

>  <InsertionCode>


>  <Model>
1

>  <AltIds>


>  <MissingHeavyAtoms>
0

>  <ObservedFormula>
C22 N5 O3

>  <Name>
1-ethyl-~{N}-methyl-2,3-bis(oxidanylidene)-~{N}-[(1-phenylpyrazol-4-yl)methyl]-4~{H}-quinoxaline-6-carboxamide

>  <SystematicName>
1-ethyl-~{N}-methyl-2,3-bis(oxidanylidene)-~{N}-[(1-phenylpyrazol-4-yl)methyl]-4~{H}-quinoxaline-6-carboxamide

>  <Synonyms>


>  <Type>
NON-POLYMER

>  <Formula>
C22 H21 N5 O3

>  <MolecularWeight>
403.434

>  <ModifiedDate>
2018-06-08

>  <Parent>


>  <OneLetterCode>


>  <SubcomponentList>


>  <AmbiguousFlag>
N

>  <InChI>
InChI=1S/C22H21N5O3/c1-3-26-19-10-9-16(11-18(19)24-20(28)22(26)30)21(29)25(2)13-15-12-23-27(14-15)17-7-5-4-6-8-17/h4-12,14H,3,13H2,1-2H3,(H,24,28)

>  <InChIKey>
WOECCYJDFDPEPV-UHFFFAOYSA-N

>  <SMILES>
CCN1c2ccc(cc2NC(=O)C1=O)C(=O)N(C)Cc3cnn(c3)c4ccccc4

$$$$
