2UWP_894_A_1245
  RCSB PDB08012017583D
Coordinates from PDB:2UWP:A:1245 Model:1 without hydrogens
 28 30  0  0  0  0            999 V2000
   13.8890    7.1760   26.1240  Cl 0  0  0  0  0  0  0  0  0  0  0  0
   12.1960    7.4610   26.0640   C 0  0  0  0  0  0  0  0  0  0  0  0
   11.3440    7.0710   27.0180   C 0  0  0  0  0  0  0  0  0  0  0  0
    9.9840    7.4670   26.6680   C 0  0  0  0  0  0  0  0  0  0  0  0
    9.8990    8.1260   25.5140   C 0  0  0  0  0  0  0  0  0  0  0  0
    8.6340    8.6640   24.9060   C 0  0  0  0  0  0  0  0  0  0  0  0
    6.5040    8.5600   23.3070   S 0  0  0  0  0  0  0  0  0  0  0  0
    6.3800    9.8990   22.8120   O 0  0  0  0  0  0  0  0  0  0  0  0
    5.7680    8.1660   24.4680   O 0  0  0  0  0  0  0  0  0  0  0  0
    5.9590    7.6380   21.9600   N 0  0  0  0  0  0  0  0  0  0  0  0
    5.9090    6.2060   22.0910   C 0  0  0  0  0  0  0  0  0  0  0  0
    4.6250    5.5960   21.5360   C 0  0  0  0  0  0  0  0  0  0  0  0
    5.0760    4.4400   20.6470   C 0  0  0  0  0  0  0  0  0  0  0  0
    7.0300    5.5660   21.2890   C 0  0  0  0  0  0  0  0  0  0  0  0
    8.1800    5.9910   21.2610   O 0  0  0  0  0  0  0  0  0  0  0  0
    6.5420    4.4800   20.6680   N 0  0  0  0  0  0  0  0  0  0  0  0
    7.3880    3.4230   20.1030   C 0  0  0  0  0  0  0  0  0  0  0  0
    7.0020    2.0600   20.7060   C 0  0  0  0  0  0  0  0  0  0  0  0
    7.2960    3.4220   18.5590   C 0  0  0  0  0  0  0  0  0  0  0  0
    6.2350    3.7630   18.0380   O 0  0  0  0  0  0  0  0  0  0  0  0
    8.3940    3.0620   17.8140   N 0  0  0  0  0  0  0  0  0  0  0  0
    9.6610    2.5140   18.3470   C 0  0  0  0  0  0  0  0  0  0  0  0
   10.1760    1.3400   17.5190   C 0  0  0  0  0  0  0  0  0  0  0  0
   10.1400    1.7080   16.1540   O 0  0  0  0  0  0  0  0  0  0  0  0
    8.8510    2.0060   15.6560   C 0  0  0  0  0  0  0  0  0  0  0  0
    8.3430    3.2580   16.3530   C 0  0  0  0  0  0  0  0  0  0  0  0
   11.4660    8.3100   24.7160   S 0  0  0  0  0  0  0  0  0  0  0  0
    8.2600    8.2020   23.5050   C 0  0  0  0  0  0  0  0  0  0  0  0
  5  6  1  0  0  0  0
  7  8  2  0  0  0  0
  7  9  2  0  0  0  0
  7 10  1  0  0  0  0
 10 11  1  0  0  0  0
 11 12  1  0  0  0  0
 12 13  1  0  0  0  0
 11 14  1  0  0  0  0
 14 15  2  0  0  0  0
 13 16  1  0  0  0  0
 14 16  1  0  0  0  0
 16 17  1  0  0  0  0
 17 18  1  0  0  0  0
 17 19  1  0  0  0  0
 19 20  2  0  0  0  0
 19 21  1  0  0  0  0
 21 22  1  0  0  0  0
 22 23  1  0  0  0  0
 23 24  1  0  0  0  0
 24 25  1  0  0  0  0
 21 26  1  0  0  0  0
 25 26  1  0  0  0  0
  2 27  1  0  0  0  0
  5 27  1  0  0  0  0
  6 28  1  0  0  0  0
  7 28  1  0  0  0  0
  1  2  1  0  0  0  0
  2  3  2  0  0  0  0
  3  4  1  0  0  0  0
  4  5  2  0  0  0  0
M  END
>  <InstanceId>
2UWP_894_A_1245

>  <ChemCompId>
894

>  <PdbId>
2UWP

>  <ChainId>
A

>  <ResidueNumber>
1245

>  <InsertionCode>


>  <Model>
1

>  <AltIds>


>  <MissingHeavyAtoms>
0

>  <ObservedFormula>
C17 N3 O5 S2 Cl

>  <Name>
2-(5-CHLORO-2-THIENYL)-N-{(3S)-1-[(1S)-1-METHYL-2-MORPHOLIN-4-YL-2-OXOETHYL]-2-OXOPYRROLIDIN-3-YL}ETHANESULFONAMIDE

>  <SystematicName>
2-(5-chlorothiophen-2-yl)-N-[(3S)-1-[(2S)-1-morpholin-4-yl-1-oxo-propan-2-yl]-2-oxo-pyrrolidin-3-yl]ethanesulfonamide

>  <Synonyms>


>  <Type>
NON-POLYMER

>  <Formula>
C17 H24 Cl N3 O5 S2

>  <MolecularWeight>
449.973

>  <ModifiedDate>
2011-06-04

>  <Parent>


>  <OneLetterCode>


>  <SubcomponentList>


>  <AmbiguousFlag>


>  <InChI>
InChI=1S/C17H24ClN3O5S2/c1-12(16(22)20-7-9-26-10-8-20)21-6-4-14(17(21)23)19-28(24,25)11-5-13-2-3-15(18)27-13/h2-3,12,14,19H,4-11H2,1H3/t12-,14-/m0/s1

>  <InChIKey>
IAUZEBLXCOCAFL-JSGCOSHPSA-N

>  <SMILES>
C[C@@H](C(=O)N1CCOCC1)N2CC[C@@H](C2=O)NS(=O)(=O)CCc3ccc(s3)Cl

$$$$
