5NZF_G39_A_503
  RCSB PDB08022002373D
Coordinates from PDB:5NZF:A:503 Model:1 without hydrogens
 20 20  0  0  0  0            999 V2000
   42.8970   -1.2810   17.5140   C 0  0  0  0  0  0  0  0  0  0  0  0
   42.6260   -0.5050   16.5380   O 0  0  0  0  0  0  0  0  0  0  0  0
   42.9350   -2.5390   17.4050   O 0  0  0  0  0  0  0  0  0  0  0  0
   43.1380   -0.7350   18.8640   C 0  0  0  0  0  0  0  0  0  0  0  0
   42.9210    0.7420   19.0680   C 0  0  0  0  0  0  0  0  0  0  0  0
   42.5940    1.1170   20.5150   C 0  0  0  0  0  0  0  0  0  0  0  0
   43.5750    0.4120   21.4590   C 0  0  0  0  0  0  0  0  0  0  0  0
   43.2620    0.7470   22.8340   N 0  0  0  0  0  0  0  0  0  0  0  0
   44.1090    1.4530   23.6000   C 0  0  0  0  0  0  0  0  0  0  0  0
   45.1820    1.8830   23.2360   O 0  0  0  0  0  0  0  0  0  0  0  0
   43.6110    1.7690   25.0160   C 0  0  0  0  0  0  0  0  0  0  0  0
   43.5610   -1.0800   21.3370   C 0  0  0  0  0  0  0  0  0  0  0  0
   43.4840   -1.5420   19.8890   C 0  0  0  0  0  0  0  0  0  0  0  0
   44.7330   -1.6040   21.9960   O 0  0  0  0  0  0  0  0  0  0  0  0
   44.3440   -2.6850   22.8740   C 0  0  0  0  0  0  0  0  0  0  0  0
   43.9980   -3.9880   22.1250   C 0  0  0  0  0  0  0  0  0  0  0  0
   45.4510   -2.9160   23.8750   C 0  0  0  0  0  0  0  0  0  0  0  0
   45.7130   -1.7020   24.7450   C 0  0  0  0  0  0  0  0  0  0  0  0
   45.0880   -4.5080   21.2090   C 0  0  0  0  0  0  0  0  0  0  0  0
   42.6780    2.5920   20.5900   N 0  0  0  0  0  0  0  0  0  0  0  0
  1  2  2  0  0  0  0
  1  3  1  0  0  0  0
  1  4  1  0  0  0  0
  4  5  1  0  0  0  0
  4 13  2  0  0  0  0
  5  6  1  0  0  0  0
  6  7  1  0  0  0  0
  6 20  1  0  0  0  0
  7  8  1  0  0  0  0
  7 12  1  0  0  0  0
  8  9  1  0  0  0  0
  9 10  2  0  0  0  0
  9 11  1  0  0  0  0
 12 13  1  0  0  0  0
 12 14  1  0  0  0  0
 14 15  1  0  0  0  0
 15 16  1  0  0  0  0
 15 17  1  0  0  0  0
 16 19  1  0  0  0  0
 17 18  1  0  0  0  0
M  END
>  <InstanceId>
5NZF_G39_A_503

>  <ChemCompId>
G39

>  <PdbId>
5NZF

>  <ChainId>
A

>  <ResidueNumber>
503

>  <InsertionCode>


>  <Model>
1

>  <AltIds>


>  <MissingHeavyAtoms>
0

>  <ObservedFormula>
C14 N2 O4

>  <Name>
(3R,4R,5S)-4-(acetylamino)-5-amino-3-(pentan-3-yloxy)cyclohex-1-ene-1-carboxylic acid

>  <SystematicName>
(3R,4R,5S)-4-acetamido-5-azanyl-3-pentan-3-yloxy-cyclohexene-1-carboxylic acid

>  <Synonyms>
Oseltamivir carboxylate

>  <Type>
NON-POLYMER

>  <Formula>
C14 H24 N2 O4

>  <MolecularWeight>
284.351

>  <ModifiedDate>
2020-06-17

>  <Parent>


>  <OneLetterCode>


>  <SubcomponentList>


>  <AmbiguousFlag>
N

>  <InChI>
InChI=1S/C14H24N2O4/c1-4-10(5-2)20-12-7-9(14(18)19)6-11(15)13(12)16-8(3)17/h7,10-13H,4-6,15H2,1-3H3,(H,16,17)(H,18,19)/t11-,12+,13+/m0/s1

>  <InChIKey>
NENPYTRHICXVCS-YNEHKIRRSA-N

>  <SMILES>
CCC(CC)O[C@@H]1C=C(C[C@@H]([C@H]1NC(=O)C)N)C(=O)O

$$$$
