2ZZ2_6CN_A_301
  RCSB PDB08012018303D
Coordinates from PDB:2ZZ2:A:301 Model:1 without hydrogens
 23 24  0  0  0  0            999 V2000
   25.8050  -15.4430    9.0620   O 0  0  0  0  0  0  0  0  0  0  0  0
   24.4900  -16.1550    8.8290   P 0  0  0  0  0  0  0  0  0  0  0  0
   23.3070  -15.2400    8.7140   O 0  0  0  0  0  0  0  0  0  0  0  0
   24.5930  -17.1590    7.6890   O 0  0  0  0  0  0  0  0  0  0  0  0
   24.1170  -17.0330   10.1690   O 0  0  0  0  0  0  0  0  0  0  0  0
   25.1600  -17.6320   10.9430   C 0  0  0  0  0  0  0  0  0  0  0  0
   24.4090  -18.2730   12.1140   C 0  0  0  0  0  0  0  0  0  0  0  0
   23.8780  -17.2370   13.0910   C 0  0  0  0  0  0  0  0  0  0  0  0
   22.7500  -17.8640   13.7770   O 0  0  0  0  0  0  0  0  0  0  0  0
   25.0390  -17.0990   14.0880   C 0  0  0  0  0  0  0  0  0  0  0  0
   24.5610  -16.6630   15.3590   O 0  0  0  0  0  0  0  0  0  0  0  0
   25.3610  -19.0800   12.8470   O 0  0  0  0  0  0  0  0  0  0  0  0
   25.5680  -18.5160   14.1690   C 0  0  0  0  0  0  0  0  0  0  0  0
   27.0110  -18.5990   14.5000   N 0  0  0  0  0  0  0  0  0  0  0  0
   27.3750  -19.3010   15.6280   C 0  0  0  0  0  0  0  0  0  0  0  0
   28.7370  -19.4050   15.9670   C 0  0  0  0  0  0  0  0  0  0  0  0
   29.6780  -18.8040   15.1420   C 0  0  0  0  0  0  0  0  0  0  0  0
   30.9340  -18.8710   15.3240   O 0  0  0  0  0  0  0  0  0  0  0  0
   29.2650  -18.1350   14.0230   N 0  0  0  0  0  0  0  0  0  0  0  0
   27.9490  -18.0470   13.7040   C 0  0  0  0  0  0  0  0  0  0  0  0
   27.6390  -17.3830   12.6930   O 0  0  0  0  0  0  0  0  0  0  0  0
   26.7500  -20.6300   15.6300   C 0  0  0  0  0  0  0  0  0  0  0  0
   26.3720  -21.7260   15.5170   N 0  0  0  0  0  0  0  0  0  0  0  0
  1  2  2  0  0  0  0
  2  5  1  0  0  0  0
  2  3  1  0  0  0  0
  4  2  1  0  0  0  0
  6  5  1  0  0  0  0
  6  7  1  0  0  0  0
  7  8  1  0  0  0  0
  8  9  1  0  0  0  0
 10  8  1  0  0  0  0
 10 11  1  0  0  0  0
 12  7  1  0  0  0  0
 12 13  1  0  0  0  0
 13 10  1  0  0  0  0
 14 13  1  0  0  0  0
 15 14  1  0  0  0  0
 16 15  2  0  0  0  0
 17 16  1  0  0  0  0
 17 19  1  0  0  0  0
 18 17  2  0  0  0  0
 19 20  1  0  0  0  0
 20 14  1  0  0  0  0
 21 20  2  0  0  0  0
 22 15  1  0  0  0  0
 23 22  3  0  0  0  0
M  END
>  <InstanceId>
2ZZ2_6CN_A_301

>  <ChemCompId>
6CN

>  <PdbId>
2ZZ2

>  <ChainId>
A

>  <ResidueNumber>
301

>  <InsertionCode>


>  <Model>
1

>  <AltIds>


>  <MissingHeavyAtoms>
0

>  <ObservedFormula>
C10 N3 O9 P

>  <Name>
6-cyanouridine 5'-phosphate

>  <SystematicName>
[(2R,3S,4R,5R)-5-(6-cyano-2,4-dioxo-pyrimidin-1-yl)-3,4-dihydroxy-oxolan-2-yl]methyl dihydrogen phosphate

>  <Synonyms>


>  <Type>
NON-POLYMER

>  <Formula>
C10 H12 N3 O9 P

>  <MolecularWeight>
349.191

>  <ModifiedDate>
2011-06-04

>  <Parent>


>  <OneLetterCode>


>  <SubcomponentList>


>  <AmbiguousFlag>
N

>  <InChI>
InChI=1S/C10H12N3O9P/c11-2-4-1-6(14)12-10(17)13(4)9-8(16)7(15)5(22-9)3-21-23(18,19)20/h1,5,7-9,15-16H,3H2,(H,12,14,17)(H2,18,19,20)/t5-,7-,8-,9-/m1/s1

>  <InChIKey>
GCVKNFUDFHDSJQ-ZOQUXTDFSA-N

>  <SMILES>
C1=C(N(C(=O)NC1=O)[C@H]2[C@@H]([C@@H]([C@H](O2)COP(=O)(O)O)O)O)C#N

$$$$
