5II2_LU2_A_803
  RCSB PDB08022001443D
Coordinates from PDB:5II2:A:803 Model:1 without hydrogens
 21 23  0  0  0  0            999 V2000
   10.8850   -9.8260  -27.8380   C 0  0  0  0  0  0  0  0  0  0  0  0
   10.1470   -7.9540  -26.5670   O 0  0  0  0  0  0  0  0  0  0  0  0
   10.2630   -8.5800  -27.7670   C 0  0  0  0  0  0  0  0  0  0  0  0
    9.4050   -7.9920  -31.3400   O 0  0  0  0  0  0  0  0  0  0  0  0
    9.7660   -7.9800  -28.9310   C 0  0  0  0  0  0  0  0  0  0  0  0
   10.1300  -10.0990  -32.5400   O 0  0  0  0  0  0  0  0  0  0  0  0
    9.8810   -8.6110  -30.1930   C 0  0  0  0  0  0  0  0  0  0  0  0
   11.6290  -11.6720  -29.1010   O 0  0  0  0  0  0  0  0  0  0  0  0
   10.5040   -9.8660  -30.2680   C 0  0  0  0  0  0  0  0  0  0  0  0
   12.9650  -16.6850  -32.2740   O 0  0  0  0  0  0  0  0  0  0  0  0
   10.9970  -10.4650  -29.0830   C 0  0  0  0  0  0  0  0  0  0  0  0
   13.8970  -17.4770  -29.8070   O 0  0  0  0  0  0  0  0  0  0  0  0
   10.6270  -10.5530  -31.4950   C 0  0  0  0  0  0  0  0  0  0  0  0
   11.2000  -11.8290  -31.4880   C 0  0  0  0  0  0  0  0  0  0  0  0
   11.7190  -12.3700  -30.2910   C 0  0  0  0  0  0  0  0  0  0  0  0
   12.2880  -13.6640  -30.2250   C 0  0  0  0  0  0  0  0  0  0  0  0
   12.3370  -14.5420  -31.3360   C 0  0  0  0  0  0  0  0  0  0  0  0
   12.8870  -15.8240  -31.2050   C 0  0  0  0  0  0  0  0  0  0  0  0
   13.3690  -16.2400  -29.9530   C 0  0  0  0  0  0  0  0  0  0  0  0
   13.3460  -15.3790  -28.8480   C 0  0  0  0  0  0  0  0  0  0  0  0
   12.7710  -14.1340  -28.9910   C 0  0  0  0  0  0  0  0  0  0  0  0
  1  3  2  0  0  0  0
  1 11  1  0  0  0  0
  2  3  1  0  0  0  0
  3  5  1  0  0  0  0
  7  4  1  0  0  0  0
  5  7  2  0  0  0  0
 13  6  2  0  0  0  0
  9  7  1  0  0  0  0
  8 11  1  0  0  0  0
  8 15  1  0  0  0  0
 11  9  2  0  0  0  0
  9 13  1  0  0  0  0
 18 10  1  0  0  0  0
 12 19  1  0  0  0  0
 14 13  1  0  0  0  0
 15 14  2  0  0  0  0
 16 15  1  0  0  0  0
 21 16  2  0  0  0  0
 16 17  1  0  0  0  0
 18 17  2  0  0  0  0
 19 18  1  0  0  0  0
 20 19  2  0  0  0  0
 20 21  1  0  0  0  0
M  END
>  <InstanceId>
5II2_LU2_A_803

>  <ChemCompId>
LU2

>  <PdbId>
5II2

>  <ChainId>
A

>  <ResidueNumber>
803

>  <InsertionCode>


>  <Model>
1

>  <AltIds>


>  <MissingHeavyAtoms>
0

>  <ObservedFormula>
C15 O6

>  <Name>
2-(3,4-dihydroxyphenyl)-5,7-dihydroxy-4H-chromen-4-one

>  <SystematicName>
2-[3,4-bis(oxidanyl)phenyl]-5,7-bis(oxidanyl)chromen-4-one

>  <Synonyms>
Luteolin

>  <Type>
NON-POLYMER

>  <Formula>
C15 H10 O6

>  <MolecularWeight>
286.236

>  <ModifiedDate>
2020-06-17

>  <Parent>


>  <OneLetterCode>


>  <SubcomponentList>


>  <AmbiguousFlag>
N

>  <InChI>
InChI=1S/C15H10O6/c16-8-4-11(19)15-12(20)6-13(21-14(15)5-8)7-1-2-9(17)10(18)3-7/h1-6,16-19H

>  <InChIKey>
IQPNAANSBPBGFQ-UHFFFAOYSA-N

>  <SMILES>
c1cc(c(cc1C2=CC(=O)c3c(cc(cc3O2)O)O)O)O

$$$$
