3QWC_98P_H_2001
  RCSB PDB08012020173D
Coordinates from PDB:3QWC:H:2001 Model:1 without hydrogens
 28 30  0  0  0  0            999 V2000
   16.3970  -15.3470   23.1690   N 0  0  0  0  0  0  0  0  0  0  0  0
   17.6100  -14.5520   23.2980   C 0  0  0  0  0  0  0  0  0  0  0  0
   17.3580  -13.1950   22.6970   C 0  0  0  0  0  0  0  0  0  0  0  0
   16.3610  -12.5520   23.0190   O 0  0  0  0  0  0  0  0  0  0  0  0
   18.0050  -14.4560   24.7780   C 0  0  0  0  0  0  0  0  0  0  0  0
   19.4320  -13.9630   24.9000   C 0  0  0  0  0  0  0  0  0  0  0  0
   20.4820  -14.7060   24.3680   C 0  0  0  0  0  0  0  0  0  0  0  0
   19.6990  -12.7720   25.5610   C 0  0  0  0  0  0  0  0  0  0  0  0
   21.7910  -14.2420   24.4870   C 0  0  0  0  0  0  0  0  0  0  0  0
   21.0030  -12.3100   25.6770   C 0  0  0  0  0  0  0  0  0  0  0  0
   22.0540  -13.0480   25.1400   C 0  0  0  0  0  0  0  0  0  0  0  0
   18.2460  -12.7420   21.8050   N 0  0  0  0  0  0  0  0  0  0  0  0
   18.0340  -11.4370   21.1770   C 0  0  0  0  0  0  0  0  0  0  0  0
   16.7110  -11.4310   20.4770   C 0  0  0  0  0  0  0  0  0  0  0  0
   16.3900  -12.3850   19.7730   O 0  0  0  0  0  0  0  0  0  0  0  0
   19.1650  -11.2950   20.1670   C 0  0  0  0  0  0  0  0  0  0  0  0
   20.2070  -12.3360   20.5570   C 0  0  0  0  0  0  0  0  0  0  0  0
   19.4590  -13.4130   21.3270   C 0  0  0  0  0  0  0  0  0  0  0  0
   14.5970  -10.2330   20.0690   C 0  0  0  0  0  0  0  0  0  0  0  0
   13.6110  -11.0090   20.9210   C 0  0  0  0  0  0  0  0  0  0  0  0
   13.4330  -12.3730   20.7490   C 0  0  0  0  0  0  0  0  0  0  0  0
   12.3950  -14.4910   21.3050   C 0  0  0  0  0  0  0  0  0  0  0  0
   11.8350  -12.4310   22.4530   C 0  0  0  0  0  0  0  0  0  0  0  0
   11.9720  -11.0690   22.6730   C 0  0  0  0  0  0  0  0  0  0  0  0
   12.8680  -10.3690   21.8820   C 0  0  0  0  0  0  0  0  0  0  0  0
   15.9190  -10.3750   20.6700   N 0  0  0  0  0  0  0  0  0  0  0  0
   12.5620  -13.0480   21.5090   N 0  3  0  0  0  0  0  0  0  0  0  0
   13.0960   -8.6210   22.1220  Cl 0  0  0  0  0  0  0  0  0  0  0  0
  6  5  1  0  0  0  0
  6  7  2  0  0  0  0
  6  8  1  0  0  0  0
  5  2  1  0  0  0  0
  2  3  1  0  0  0  0
  2  1  1  0  0  0  0
  3 12  1  0  0  0  0
  3  4  2  0  0  0  0
  7  9  1  0  0  0  0
  9 11  2  0  0  0  0
 11 10  1  0  0  0  0
 10  8  2  0  0  0  0
 13 14  1  0  0  0  0
 13 16  1  0  0  0  0
 13 12  1  0  0  0  0
 14 26  1  0  0  0  0
 14 15  2  0  0  0  0
 19 20  1  0  0  0  0
 19 26  1  0  0  0  0
 20 21  2  0  0  0  0
 20 25  1  0  0  0  0
 16 17  1  0  0  0  0
 17 18  1  0  0  0  0
 18 12  1  0  0  0  0
 21 27  1  0  0  0  0
 22 27  1  0  0  0  0
 23 24  1  0  0  0  0
 23 27  2  0  0  0  0
 24 25  2  0  0  0  0
 25 28  1  0  0  0  0
M  CHG  1  27   1
M  END
>  <InstanceId>
3QWC_98P_H_2001

>  <ChemCompId>
98P

>  <PdbId>
3QWC

>  <ChainId>
H

>  <ResidueNumber>
2001

>  <InsertionCode>


>  <Model>
1

>  <AltIds>


>  <MissingHeavyAtoms>
0

>  <ObservedFormula>
C21 N4 O2 Cl

>  <Name>
D-phenylalanyl-N-[(4-chloro-1-methylpyridinium-3-yl)methyl]-L-prolinamide

>  <SystematicName>
(2S)-1-[(2R)-2-azanyl-3-phenyl-propanoyl]-N-[(4-chloro-1-methyl-pyridin-1-ium-3-yl)methyl]pyrrolidine-2-carboxamide

>  <Synonyms>


>  <Type>
peptide-like

>  <Formula>
C21 H26 Cl N4 O2

>  <MolecularWeight>
401.91

>  <ModifiedDate>
2012-03-09

>  <Parent>


>  <OneLetterCode>


>  <SubcomponentList>
DPN PRO NNT

>  <AmbiguousFlag>
N

>  <InChI>
InChI=1S/C21H25ClN4O2/c1-25-11-9-17(22)16(14-25)13-24-20(27)19-8-5-10-26(19)21(28)18(23)12-15-6-3-2-4-7-15/h2-4,6-7,9,11,14,18-19H,5,8,10,12-13,23H2,1H3/p+1/t18-,19+/m1/s1

>  <InChIKey>
FZBNWDIVSYUHIW-MOPGFXCFSA-O

>  <SMILES>
C[n+]1ccc(c(c1)CNC(=O)[C@@H]2CCCN2C(=O)[C@@H](Cc3ccccc3)N)Cl

$$$$
