1KPM_VIT_A_401
  RCSB PDB08012015203D
Coordinates from PDB:1KPM:A:401 Model:1 without hydrogens
 31 32  0  0  0  0            999 V2000
    6.4100   15.4090   39.0000   C 0  0  0  0  0  0  0  0  0  0  0  0
   15.6250   22.8830   46.6720   C 0  0  0  0  0  0  0  0  0  0  0  0
   15.2380   22.6240   45.3140   C 0  0  0  0  0  0  0  0  0  0  0  0
   16.1790   22.1020   44.3810   C 0  0  0  0  0  0  0  0  0  0  0  0
   17.5320   21.8290   44.7840   C 0  0  0  0  0  0  0  0  0  0  0  0
   17.9320   22.0880   46.1540   C 0  0  0  0  0  0  0  0  0  0  0  0
   16.9750   22.6150   47.0900   C 0  0  0  0  0  0  0  0  0  0  0  0
   14.6190   23.3940   47.6800   C 0  0  0  0  0  0  0  0  0  0  0  0
   15.7370   21.8570   43.0440   O 0  0  0  0  0  0  0  0  0  0  0  0
   14.8120   22.7590   42.2560   C 0  0  0  0  0  0  0  0  0  0  0  0
   13.7770   22.8900   44.7740   C 0  0  0  0  0  0  0  0  0  0  0  0
   13.5950   23.2010   43.2290   C 0  0  0  0  0  0  0  0  0  0  0  0
   18.4970   21.3400   43.7060   C 0  0  0  0  0  0  0  0  0  0  0  0
   19.3070   21.7440   46.3150   C 0  0  0  0  0  0  0  0  0  0  0  0
   17.2020   22.8260   48.4770   O 0  0  0  0  0  0  0  0  0  0  0  0
   14.8550   23.9000   41.2740   C 0  0  0  0  0  0  0  0  0  0  0  0
   13.6530   21.3680   42.0150   C 0  0  0  0  0  0  0  0  0  0  0  0
   12.5960   19.8320   41.2430   C 0  0  0  0  0  0  0  0  0  0  0  0
   12.5480   18.9170   39.5940   C 0  0  0  0  0  0  0  0  0  0  0  0
   11.1700   19.1320   38.4550   C 0  0  0  0  0  0  0  0  0  0  0  0
    9.9120   19.9660   38.5420   C 0  0  0  0  0  0  0  0  0  0  0  0
   10.7310   17.6220   38.5650   C 0  0  0  0  0  0  0  0  0  0  0  0
    9.5110   16.9300   38.6600   C 0  0  0  0  0  0  0  0  0  0  0  0
    9.0100   15.7420   38.1530   C 0  0  0  0  0  0  0  0  0  0  0  0
    7.4820   15.2990   37.9070   C 0  0  0  0  0  0  0  0  0  0  0  0
    7.3990   13.7670   37.6660   C 0  0  0  0  0  0  0  0  0  0  0  0
    5.9430   13.2970   37.4420   C 0  0  0  0  0  0  0  0  0  0  0  0
    5.9220   11.8050   37.2250   C 0  0  0  0  0  0  0  0  0  0  0  0
    4.4690   11.3050   36.9960   C 0  0  0  0  0  0  0  0  0  0  0  0
    3.8600   11.9620   35.7320   C 0  0  0  0  0  0  0  0  0  0  0  0
    4.4680    9.7770   36.8000   C 0  0  0  0  0  0  0  0  0  0  0  0
  1 25  1  0  0  0  0
  2  3  2  0  0  0  0
  2  7  1  0  0  0  0
  2  8  1  0  0  0  0
  3  4  1  0  0  0  0
  3 11  1  0  0  0  0
  4  5  2  0  0  0  0
  4  9  1  0  0  0  0
  5  6  1  0  0  0  0
  5 13  1  0  0  0  0
  6  7  2  0  0  0  0
  6 14  1  0  0  0  0
  7 15  1  0  0  0  0
  9 10  1  0  0  0  0
 10 12  1  0  0  0  0
 10 16  1  0  0  0  0
 10 17  1  0  0  0  0
 11 12  1  0  0  0  0
 17 18  1  0  0  0  0
 18 19  1  0  0  0  0
 19 20  1  0  0  0  0
 20 21  1  0  0  0  0
 20 22  1  0  0  0  0
 22 23  1  0  0  0  0
 23 24  1  0  0  0  0
 24 25  1  0  0  0  0
 25 26  1  0  0  0  0
 26 27  1  0  0  0  0
 27 28  1  0  0  0  0
 28 29  1  0  0  0  0
 29 30  1  0  0  0  0
 29 31  1  0  0  0  0
M  END
>  <InstanceId>
1KPM_VIT_A_401

>  <ChemCompId>
VIT

>  <PdbId>
1KPM

>  <ChainId>
A

>  <ResidueNumber>
401

>  <InsertionCode>


>  <Model>
1

>  <AltIds>


>  <MissingHeavyAtoms>
0

>  <ObservedFormula>
C29 O2

>  <Name>
VITAMIN E

>  <SystematicName>
(2S)-2,5,7,8-tetramethyl-2-[(4S,8S)-4,8,12-trimethyltridecyl]chroman-6-ol

>  <Synonyms>
2,5,7,8-TETRAMETHYL-2-(4,8,12-TRIMETHYLTRIDECYL)-6-CHROMANOL

>  <Type>
NON-POLYMER

>  <Formula>
C29 H50 O2

>  <MolecularWeight>
430.706

>  <ModifiedDate>
2020-06-17

>  <Parent>


>  <OneLetterCode>


>  <SubcomponentList>


>  <AmbiguousFlag>
N

>  <InChI>
InChI=1S/C29H50O2/c1-20(2)12-9-13-21(3)14-10-15-22(4)16-11-18-29(8)19-17-26-25(7)27(30)23(5)24(6)28(26)31-29/h20-22,30H,9-19H2,1-8H3/t21-,22-,29-/m0/s1

>  <InChIKey>
GVJHHUAWPYXKBD-SYZUXVNWSA-N

>  <SMILES>
Cc1c(c2c(c(c1O)C)CC[C@](O2)(C)CCC[C@@H](C)CCC[C@@H](C)CCCC(C)C)C

$$$$
