3PPP_BET_A_401
  RCSB PDB08012020103D
Coordinates from PDB:3PPP:A:401 Model:1 without hydrogens
  8  7  0  0  0  0            999 V2000
  -29.6230  -29.7550    9.1960   N 0  3  0  0  0  0  0  0  0  0  0  0
  -29.8090  -31.1510    8.8750   C 0  0  0  0  0  0  0  0  0  0  0  0
  -28.7590  -32.2140    9.2190   C 0  0  0  0  0  0  0  0  0  0  0  0
  -28.6610  -33.2630    8.6470   O 0  0  0  0  0  0  0  0  0  0  0  0
  -28.0380  -31.8880   10.2050   O 0  0  0  0  0  0  0  0  0  0  0  0
  -30.7240  -28.9600    8.5780   C 0  0  0  0  0  0  0  0  0  0  0  0
  -28.3650  -29.2480    8.6890   C 0  0  0  0  0  0  0  0  0  0  0  0
  -29.6960  -29.5750   10.6270   C 0  0  0  0  0  0  0  0  0  0  0  0
  1  2  1  0  0  0  0
  1  6  1  0  0  0  0
  1  7  1  0  0  0  0
  1  8  1  0  0  0  0
  2  3  1  0  0  0  0
  3  4  2  0  0  0  0
  3  5  1  0  0  0  0
M  CHG  1   1   1
M  END
>  <InstanceId>
3PPP_BET_A_401

>  <ChemCompId>
BET

>  <PdbId>
3PPP

>  <ChainId>
A

>  <ResidueNumber>
401

>  <InsertionCode>


>  <Model>
1

>  <AltIds>


>  <MissingHeavyAtoms>
0

>  <ObservedFormula>
C5 N O2

>  <Name>
TRIMETHYL GLYCINE

>  <SystematicName>
carboxymethyl-trimethyl-azanium

>  <Synonyms>


>  <Type>
NON-POLYMER

>  <Formula>
C5 H12 N O2

>  <MolecularWeight>
118.154

>  <ModifiedDate>
2011-06-04

>  <Parent>


>  <OneLetterCode>


>  <SubcomponentList>


>  <AmbiguousFlag>
N

>  <InChI>
InChI=1S/C5H11NO2/c1-6(2,3)4-5(7)8/h4H2,1-3H3/p+1

>  <InChIKey>
KWIUHFFTVRNATP-UHFFFAOYSA-O

>  <SMILES>
C[N+](C)(C)CC(=O)O

$$$$
