5WE9_GY7_A_303
  RCSB PDB08022003293D
Coordinates from PDB:5WE9:A:303 Model:1 without hydrogens
 34 37  0  0  0  0            999 V2000
  -10.3010   82.0280   13.8620   C 0  0  0  0  0  0  0  0  0  0  0  0
   -7.8010   84.4230   18.8540   C 0  0  0  0  0  0  0  0  0  0  0  0
   -6.7090   83.6070   19.1160   C 0  0  0  0  0  0  0  0  0  0  0  0
   -5.4890   83.8320   18.4990   C 0  0  0  0  0  0  0  0  0  0  0  0
   -5.3460   84.8730   17.6110   C 0  0  0  0  0  0  0  0  0  0  0  0
   -6.4170   85.6910   17.3400   C 0  0  0  0  0  0  0  0  0  0  0  0
   -7.6390   85.4680   17.9570   C 0  0  0  0  0  0  0  0  0  0  0  0
  -10.0940   78.8300   16.9820   C 0  0  0  0  0  0  0  0  0  0  0  0
   -9.5230   77.9460   16.0660   C 0  0  0  0  0  0  0  0  0  0  0  0
   -5.4650   80.0950   15.3440   C 0  0  0  0  0  0  0  0  0  0  0  0
   -5.4200   81.3900   16.1380   C 0  0  0  0  0  0  0  0  0  0  0  0
   -9.1170   81.5610   13.3110   C 0  0  0  0  0  0  0  0  0  0  0  0
   -5.8930   82.3960   15.1130   C 0  0  0  0  0  0  0  0  0  0  0  0
   -9.2110   80.4340   12.5090   C 0  0  0  0  0  0  0  0  0  0  0  0
  -10.3990   79.7810   12.2820   C 0  0  0  0  0  0  0  0  0  0  0  0
  -11.5400   80.2760   12.8700   C 0  0  0  0  0  0  0  0  0  0  0  0
  -11.5090   81.4020   13.6660   C 0  0  0  0  0  0  0  0  0  0  0  0
   -7.8020   82.2440   13.5490   C 0  0  0  0  0  0  0  0  0  0  0  0
   -6.8380   80.1970   14.6640   C 0  0  0  0  0  0  0  0  0  0  0  0
   -7.9970   79.6840   15.4900   C 0  0  0  0  0  0  0  0  0  0  0  0
   -9.5860   80.0910   17.1160   C 0  0  0  0  0  0  0  0  0  0  0  0
  -10.1380   81.1000   18.0880   C 0  0  0  0  0  0  0  0  0  0  0  0
  -10.1390   83.4920   18.6410   C 0  0  0  0  0  0  0  0  0  0  0  0
   -9.1300   84.1780   19.5330   C 0  0  0  0  0  0  0  0  0  0  0  0
  -10.2830   83.1320   14.6420   F 0  0  0  0  0  0  0  0  0  0  0  0
   -8.0910   79.9340   11.9400   F 0  0  0  0  0  0  0  0  0  0  0  0
   -6.9190   81.6460   14.3660   N 0  0  0  0  0  0  0  0  0  0  0  0
   -8.5540   80.5180   16.3680   N 0  0  0  0  0  0  0  0  0  0  0  0
   -9.5870   82.3130   17.9810   N 0  0  0  0  0  0  0  0  0  0  0  0
   -8.4650   78.4210   15.3220   N 0  0  0  0  0  0  0  0  0  0  0  0
   -7.5810   83.3520   13.0710   O 0  0  0  0  0  0  0  0  0  0  0  0
  -11.0180   80.8020   18.9020   O 0  0  0  0  0  0  0  0  0  0  0  0
  -11.1330   78.3390   17.6750   O 0  0  0  0  0  0  0  0  0  0  0  0
   -9.9180   76.7790   15.8980   O 0  0  0  0  0  0  0  0  0  0  0  0
 26 14  1  0  0  0  0
 15 14  2  0  0  0  0
 15 16  1  0  0  0  0
 14 12  1  0  0  0  0
 16 17  2  0  0  0  0
 31 18  2  0  0  0  0
 12 18  1  0  0  0  0
 12  1  2  0  0  0  0
 18 27  1  0  0  0  0
 17  1  1  0  0  0  0
  1 25  1  0  0  0  0
 27 19  1  0  0  0  0
 27 13  1  0  0  0  0
 19 10  1  0  0  0  0
 19 20  1  0  0  0  0
 13 11  1  0  0  0  0
 30 20  1  0  0  0  0
 30  9  1  0  0  0  0
 10 11  1  0  0  0  0
 20 28  2  0  0  0  0
 34  9  2  0  0  0  0
  9  8  1  0  0  0  0
 28 21  1  0  0  0  0
  8 21  2  0  0  0  0
  8 33  1  0  0  0  0
 21 22  1  0  0  0  0
  6  5  2  0  0  0  0
  6  7  1  0  0  0  0
  5  4  1  0  0  0  0
  7  2  2  0  0  0  0
 29 22  1  0  0  0  0
 29 23  1  0  0  0  0
 22 32  2  0  0  0  0
  4  3  2  0  0  0  0
 23 24  1  0  0  0  0
  2  3  1  0  0  0  0
  2 24  1  0  0  0  0
M  END
>  <InstanceId>
5WE9_GY7_A_303

>  <ChemCompId>
GY7

>  <PdbId>
5WE9

>  <ChainId>
A

>  <ResidueNumber>
303

>  <InsertionCode>


>  <Model>
1

>  <AltIds>


>  <MissingHeavyAtoms>
0

>  <ObservedFormula>
C24 N4 O4 F2

>  <Name>
2-[(2S)-1-(2,6-difluorobenzene-1-carbonyl)pyrrolidin-2-yl]-5-hydroxy-6-oxo-N-(2-phenylethyl)-1,6-dihydropyrimidine-4-carboxamide

>  <SystematicName>
2-[(2~{S})-1-[2,6-bis(fluoranyl)phenyl]carbonylpyrrolidin-2-yl]-5-oxidanyl-6-oxidanylidene-~{N}-(2-phenylethyl)-1~{H}-pyrimidine-4-carboxamide

>  <Synonyms>
SRI-29731

>  <Type>
NON-POLYMER

>  <Formula>
C24 H22 F2 N4 O4

>  <MolecularWeight>
468.453

>  <ModifiedDate>
2017-12-22

>  <Parent>


>  <OneLetterCode>


>  <SubcomponentList>


>  <AmbiguousFlag>
N

>  <InChI>
InChI=1S/C24H22F2N4O4/c25-15-8-4-9-16(26)18(15)24(34)30-13-5-10-17(30)21-28-19(20(31)23(33)29-21)22(32)27-12-11-14-6-2-1-3-7-14/h1-4,6-9,17,31H,5,10-13H2,(H,27,32)(H,28,29,33)/t17-/m0/s1

>  <InChIKey>
XCPZFRIVOHADCX-KRWDZBQOSA-N

>  <SMILES>
c1ccc(cc1)CCNC(=O)C2=C(C(=O)NC(=N2)[C@@H]3CCCN3C(=O)c4c(cccc4F)F)O

$$$$
