3SHC_B01_H_3
  RCSB PDB08012020283D
Coordinates from PDB:3SHC:H:3 Model:1 without hydrogens
 27 29  0  0  0  0            999 V2000
   16.4670  -16.0470   23.1480   N 0  0  0  0  0  0  0  0  0  0  0  0
   17.6300  -15.1850   23.2700   C 0  0  0  0  0  0  0  0  0  0  0  0
   17.2830  -13.8210   22.7350   C 0  0  0  0  0  0  0  0  0  0  0  0
   16.2960  -13.2280   23.1540   O 0  0  0  0  0  0  0  0  0  0  0  0
   18.0200  -15.0840   24.7410   C 0  0  0  0  0  0  0  0  0  0  0  0
   19.4380  -14.5680   24.8540   C 0  0  0  0  0  0  0  0  0  0  0  0
   20.4480  -15.1110   24.0600   C 0  0  0  0  0  0  0  0  0  0  0  0
   19.7360  -13.5580   25.7650   C 0  0  0  0  0  0  0  0  0  0  0  0
   21.7540  -14.6370   24.1720   C 0  0  0  0  0  0  0  0  0  0  0  0
   21.0380  -13.0840   25.8760   C 0  0  0  0  0  0  0  0  0  0  0  0
   22.0460  -13.6240   25.0770   C 0  0  0  0  0  0  0  0  0  0  0  0
   18.0770  -13.3080   21.7950   N 0  0  0  0  0  0  0  0  0  0  0  0
   17.7740  -11.9880   21.2330   C 0  0  0  0  0  0  0  0  0  0  0  0
   16.3830  -11.9630   20.6550   C 0  0  0  0  0  0  0  0  0  0  0  0
   15.9960  -12.9110   19.9890   O 0  0  0  0  0  0  0  0  0  0  0  0
   18.8090  -11.8000   20.1290   C 0  0  0  0  0  0  0  0  0  0  0  0
   19.5060  -13.1370   19.9370   C 0  0  0  0  0  0  0  0  0  0  0  0
   19.2710  -13.9260   21.2160   C 0  0  0  0  0  0  0  0  0  0  0  0
   14.2330  -10.7040   20.4400   C 0  0  0  0  0  0  0  0  0  0  0  0
   13.2640  -10.6040   21.6020   C 0  0  0  0  0  0  0  0  0  0  0  0
   11.5220  -11.5700   22.8360   C 0  0  0  0  0  0  0  0  0  0  0  0
   11.4780  -10.4810   23.7070   C 0  0  0  0  0  0  0  0  0  0  0  0
   12.3620   -9.4240   23.5200   C 0  0  0  0  0  0  0  0  0  0  0  0
   13.2590   -9.4960   22.4520   C 0  0  0  0  0  0  0  0  0  0  0  0
   15.6070  -10.9010   20.9080   N 0  0  0  0  0  0  0  0  0  0  0  0
   12.3970  -11.6160   21.8180   N 0  0  0  0  0  0  0  0  0  0  0  0
   12.3300   -7.9990   24.6400  Cl 0  0  0  0  0  0  0  0  0  0  0  0
  7  9  2  0  0  0  0
  7  6  1  0  0  0  0
  9 11  1  0  0  0  0
 11 10  2  0  0  0  0
 10  8  1  0  0  0  0
  8  6  2  0  0  0  0
  6  5  1  0  0  0  0
  5  2  1  0  0  0  0
  2  3  1  0  0  0  0
  2  1  1  0  0  0  0
  3 12  1  0  0  0  0
  3  4  2  0  0  0  0
 13 14  1  0  0  0  0
 13 16  1  0  0  0  0
 13 12  1  0  0  0  0
 14 25  1  0  0  0  0
 14 15  2  0  0  0  0
 19 20  1  0  0  0  0
 19 25  1  0  0  0  0
 20 24  2  0  0  0  0
 20 26  1  0  0  0  0
 16 17  1  0  0  0  0
 17 18  1  0  0  0  0
 18 12  1  0  0  0  0
 21 22  1  0  0  0  0
 21 26  2  0  0  0  0
 22 23  2  0  0  0  0
 23 24  1  0  0  0  0
 23 27  1  0  0  0  0
M  END
>  <InstanceId>
3SHC_B01_H_3

>  <ChemCompId>
B01

>  <PdbId>
3SHC

>  <ChainId>
H

>  <ResidueNumber>
3

>  <InsertionCode>


>  <Model>
1

>  <AltIds>


>  <MissingHeavyAtoms>
0

>  <ObservedFormula>
C20 N4 O2 Cl

>  <Name>
D-phenylalanyl-N-[(4-chloropyridin-2-yl)methyl]-L-prolinamide

>  <SystematicName>
(2S)-1-[(2R)-2-azanyl-3-phenyl-propanoyl]-N-[(4-chloranylpyridin-2-yl)methyl]pyrrolidine-2-carboxamide

>  <Synonyms>


>  <Type>
peptide-like

>  <Formula>
C20 H23 Cl N4 O2

>  <MolecularWeight>
386.875

>  <ModifiedDate>
2012-06-15

>  <Parent>


>  <OneLetterCode>


>  <SubcomponentList>
DPN PRO NNY

>  <AmbiguousFlag>
N

>  <InChI>
InChI=1S/C20H23ClN4O2/c21-15-8-9-23-16(12-15)13-24-19(26)18-7-4-10-25(18)20(27)17(22)11-14-5-2-1-3-6-14/h1-3,5-6,8-9,12,17-18H,4,7,10-11,13,22H2,(H,24,26)/t17-,18+/m1/s1

>  <InChIKey>
HLPBLACQLHRYRL-MSOLQXFVSA-N

>  <SMILES>
c1ccc(cc1)C[C@H](C(=O)N2CCC[C@H]2C(=O)NCc3cc(ccn3)Cl)N

$$$$
