2POU_I7A_A_1000
  RCSB PDB08012017443D
Coordinates from PDB:2POU:A:1000 Model:1 without hydrogens
 16 16  0  0  0  0            999 V2000
   -3.8520    2.1690   11.9070   S 0  0  0  0  0  0  0  0  0  0  0  0
   -4.5040    2.9300   10.8880   O 0  0  0  0  0  0  0  0  0  0  0  0
   -3.8880    0.7430   11.8550   O 0  0  0  0  0  0  0  0  0  0  0  0
   -2.3410    2.6200   11.9690   N 0  0  0  0  0  0  0  0  0  0  0  0
   -5.9440    0.7900   16.7620   S 0  0  0  0  0  0  0  0  0  0  0  0
   -5.2420    1.1140   17.9710   O 0  0  0  0  0  0  0  0  0  0  0  0
   -7.3690    0.7690   16.7720   O 0  0  0  0  0  0  0  0  0  0  0  0
   -5.4090   -0.5950   16.2520   N 0  0  0  0  0  0  0  0  0  0  0  0
   -4.5900    2.6530   13.4350   C 0  0  0  0  0  0  0  0  0  0  0  0
   -4.9290    1.6710   14.3820   C 0  0  0  0  0  0  0  0  0  0  0  0
   -5.5260    2.0580   15.5950   C 0  0  0  0  0  0  0  0  0  0  0  0
   -5.7820    3.4210   15.8600   C 0  0  0  0  0  0  0  0  0  0  0  0
   -5.4310    4.3870   14.9070   C 0  0  0  0  0  0  0  0  0  0  0  0
   -4.8370    4.0240   13.6910   C 0  0  0  0  0  0  0  0  0  0  0  0
   -6.5140    3.9040   17.3140  Cl 0  0  0  0  0  0  0  0  0  0  0  0
   -5.7340    6.0460   15.2320  Cl 0  0  0  0  0  0  0  0  0  0  0  0
  2  1  2  0  0  0  0
  3  1  2  0  0  0  0
  1  4  1  0  0  0  0
  1  9  1  0  0  0  0
  9 14  2  0  0  0  0
  9 10  1  0  0  0  0
 14 13  1  0  0  0  0
 10 11  2  0  0  0  0
 13 16  1  0  0  0  0
 13 12  2  0  0  0  0
 11 12  1  0  0  0  0
 11  5  1  0  0  0  0
 12 15  1  0  0  0  0
  8  5  1  0  0  0  0
  5  7  2  0  0  0  0
  5  6  2  0  0  0  0
M  END
>  <InstanceId>
2POU_I7A_A_1000

>  <ChemCompId>
I7A

>  <PdbId>
2POU

>  <ChainId>
A

>  <ResidueNumber>
1000

>  <InsertionCode>


>  <Model>
1

>  <AltIds>


>  <MissingHeavyAtoms>
0

>  <ObservedFormula>
C6 N2 O4 S2 Cl2

>  <Name>
4,5-DICHLOROBENZENE-1,3-DISULFONAMIDE

>  <SystematicName>
4,5-dichlorobenzene-1,3-disulfonamide

>  <Synonyms>


>  <Type>
NON-POLYMER

>  <Formula>
C6 H6 Cl2 N2 O4 S2

>  <MolecularWeight>
305.159

>  <ModifiedDate>
2011-06-04

>  <Parent>


>  <OneLetterCode>


>  <SubcomponentList>


>  <AmbiguousFlag>


>  <InChI>
InChI=1S/C6H6Cl2N2O4S2/c7-4-1-3(15(9,11)12)2-5(6(4)8)16(10,13)14/h1-2H,(H2,9,11,12)(H2,10,13,14)

>  <InChIKey>
GJQPMPFPNINLKP-UHFFFAOYSA-N

>  <SMILES>
c1c(cc(c(c1S(=O)(=O)N)Cl)Cl)S(=O)(=O)N

$$$$
