4NXV_GDP_A_501
  RCSB PDB08012022413D
Coordinates from PDB:4NXV:A:501 Model:1 without hydrogens
 28 30  0  0  0  0            999 V2000
   -4.7470  -27.1360  -11.5440   P 0  0  0  0  0  0  0  0  0  0  0  0
   -5.2720  -25.7330  -11.3640   O 0  0  0  0  0  0  0  0  0  0  0  0
   -3.9280  -27.2000  -12.8130   O 0  0  0  0  0  0  0  0  0  0  0  0
   -5.8990  -28.0860  -11.6510   O 0  0  0  0  0  0  0  0  0  0  0  0
   -3.8530  -27.4840  -10.3090   O 0  0  0  0  0  0  0  0  0  0  0  0
   -4.2780  -28.5960   -9.2920   P 0  0  0  0  0  0  0  0  0  0  0  0
   -3.1380  -28.8510   -8.3230   O 0  0  0  0  0  0  0  0  0  0  0  0
   -5.5100  -28.1440   -8.5300   O 0  0  0  0  0  0  0  0  0  0  0  0
   -4.5950  -29.9050  -10.1050   O 0  0  0  0  0  0  0  0  0  0  0  0
   -5.0650  -31.0740   -9.5000   C 0  0  0  0  0  0  0  0  0  0  0  0
   -5.0420  -32.1430  -10.5720   C 0  0  0  0  0  0  0  0  0  0  0  0
   -4.0850  -33.1260  -10.2690   O 0  0  0  0  0  0  0  0  0  0  0  0
   -6.3790  -32.7940  -10.7620   C 0  0  0  0  0  0  0  0  0  0  0  0
   -6.5810  -33.2240  -12.0640   O 0  0  0  0  0  0  0  0  0  0  0  0
   -6.2430  -33.8910   -9.7680   C 0  0  0  0  0  0  0  0  0  0  0  0
   -7.0590  -34.9670  -10.0670   O 0  0  0  0  0  0  0  0  0  0  0  0
   -4.7750  -34.2510   -9.8010   C 0  0  0  0  0  0  0  0  0  0  0  0
   -4.2410  -34.6990   -8.5180   N 0  0  0  0  0  0  0  0  0  0  0  0
   -3.2870  -35.6380   -8.3540   C 0  0  0  0  0  0  0  0  0  0  0  0
   -3.0280  -35.7940   -7.0650   N 0  0  0  0  0  0  0  0  0  0  0  0
   -3.7960  -34.9620   -6.3600   C 0  0  0  0  0  0  0  0  0  0  0  0
   -3.9570  -34.6850   -4.9680   C 0  0  0  0  0  0  0  0  0  0  0  0
   -3.2900  -35.2870   -4.1370   O 0  0  0  0  0  0  0  0  0  0  0  0
   -4.8850  -33.7220   -4.5790   N 0  0  0  0  0  0  0  0  0  0  0  0
   -5.7030  -32.9740   -5.5030   C 0  0  0  0  0  0  0  0  0  0  0  0
   -6.6620  -31.9660   -5.0420   N 0  0  0  0  0  0  0  0  0  0  0  0
   -5.5580  -33.2230   -6.8020   N 0  0  0  0  0  0  0  0  0  0  0  0
   -4.5890  -34.2390   -7.2740   C 0  0  0  0  0  0  0  0  0  0  0  0
  1  2  2  0  0  0  0
  1  3  1  0  0  0  0
  1  4  1  0  0  0  0
  1  5  1  0  0  0  0
  5  6  1  0  0  0  0
  6  7  2  0  0  0  0
  6  8  1  0  0  0  0
  6  9  1  0  0  0  0
  9 10  1  0  0  0  0
 10 11  1  0  0  0  0
 11 12  1  0  0  0  0
 11 13  1  0  0  0  0
 12 17  1  0  0  0  0
 13 14  1  0  0  0  0
 13 15  1  0  0  0  0
 15 16  1  0  0  0  0
 15 17  1  0  0  0  0
 17 18  1  0  0  0  0
 18 19  1  0  0  0  0
 18 28  1  0  0  0  0
 19 20  2  0  0  0  0
 20 21  1  0  0  0  0
 21 22  1  0  0  0  0
 21 28  2  0  0  0  0
 22 23  2  0  0  0  0
 22 24  1  0  0  0  0
 24 25  1  0  0  0  0
 25 26  1  0  0  0  0
 25 27  2  0  0  0  0
 27 28  1  0  0  0  0
M  END
>  <InstanceId>
4NXV_GDP_A_501

>  <ChemCompId>
GDP

>  <PdbId>
4NXV

>  <ChainId>
A

>  <ResidueNumber>
501

>  <InsertionCode>


>  <Model>
1

>  <AltIds>


>  <MissingHeavyAtoms>
0

>  <ObservedFormula>
C10 N5 O11 P2

>  <Name>
GUANOSINE-5'-DIPHOSPHATE

>  <SystematicName>
[(2R,3S,4R,5R)-5-(2-azanyl-6-oxidanylidene-1H-purin-9-yl)-3,4-bis(oxidanyl)oxolan-2-yl]methyl phosphono hydrogen phosphate

>  <Synonyms>


>  <Type>
RNA LINKING

>  <Formula>
C10 H15 N5 O11 P2

>  <MolecularWeight>
443.201

>  <ModifiedDate>
2014-05-12

>  <Parent>
G

>  <OneLetterCode>
G

>  <SubcomponentList>


>  <AmbiguousFlag>
N

>  <InChI>
InChI=1S/C10H15N5O11P2/c11-10-13-7-4(8(18)14-10)12-2-15(7)9-6(17)5(16)3(25-9)1-24-28(22,23)26-27(19,20)21/h2-3,5-6,9,16-17H,1H2,(H,22,23)(H2,19,20,21)(H3,11,13,14,18)/t3-,5-,6-,9-/m1/s1

>  <InChIKey>
QGWNDRXFNXRZMB-UUOKFMHZSA-N

>  <SMILES>
c1nc2c(n1[C@H]3[C@@H]([C@@H]([C@H](O3)CO[P@](=O)(O)OP(=O)(O)O)O)O)N=C(NC2=O)N

$$$$
