1O0N_U3P_A_1101
  RCSB PDB08012015353D
Coordinates from PDB:1O0N:A:1101 Model:1 without hydrogens
 21 22  0  0  0  0            999 V2000
   36.4670   -2.1580   11.9650   N 0  0  0  0  0  0  0  0  0  0  0  0
   35.3090   -2.2720   11.2030   C 0  0  0  0  0  0  0  0  0  0  0  0
   34.6430   -3.4670   11.3380   N 0  0  0  0  0  0  0  0  0  0  0  0
   35.0020   -4.5360   12.1370   C 0  0  0  0  0  0  0  0  0  0  0  0
   36.2080   -4.3460   12.8810   C 0  0  0  0  0  0  0  0  0  0  0  0
   36.8850   -3.1960   12.7710   C 0  0  0  0  0  0  0  0  0  0  0  0
   34.8970   -1.3810   10.4690   O 0  0  0  0  0  0  0  0  0  0  0  0
   34.2850   -5.5360   12.1690   O 0  0  0  0  0  0  0  0  0  0  0  0
   38.4720    3.3630   13.0140   P 0  0  0  0  0  0  0  0  0  0  0  0
   37.4380    3.5170   14.1220   O 0  0  0  0  0  0  0  0  0  0  0  0
   38.3210    4.3830   11.8990   O 0  0  0  0  0  0  0  0  0  0  0  0
   39.8960    3.2260   13.5350   O 0  0  0  0  0  0  0  0  0  0  0  0
   39.5890   -1.7090   14.3630   O 0  0  0  0  0  0  0  0  0  0  0  0
   40.3340   -0.9420   13.3980   C 0  0  0  0  0  0  0  0  0  0  0  0
   39.3940   -0.2170   12.4600   C 0  0  0  0  0  0  0  0  0  0  0  0
   38.5950   -1.1950   11.7380   O 0  0  0  0  0  0  0  0  0  0  0  0
   38.4090    0.7440   13.1230   C 0  0  0  0  0  0  0  0  0  0  0  0
   38.2390    1.9200   12.3410   O 0  0  0  0  0  0  0  0  0  0  0  0
   37.1140   -0.0620   13.1650   C 0  0  0  0  0  0  0  0  0  0  0  0
   35.9550    0.7430   13.1160   O 0  0  0  0  0  0  0  0  0  0  0  0
   37.2220   -0.8950   11.8900   C 0  0  0  0  0  0  0  0  0  0  0  0
  1  2  1  0  0  0  0
  1  6  1  0  0  0  0
  1 21  1  0  0  0  0
  2  3  1  0  0  0  0
  2  7  2  0  0  0  0
  3  4  1  0  0  0  0
  4  5  1  0  0  0  0
  4  8  2  0  0  0  0
  5  6  2  0  0  0  0
  9 10  1  0  0  0  0
  9 11  2  0  0  0  0
  9 12  1  0  0  0  0
  9 18  1  0  0  0  0
 13 14  1  0  0  0  0
 14 15  1  0  0  0  0
 15 16  1  0  0  0  0
 15 17  1  0  0  0  0
 16 21  1  0  0  0  0
 17 18  1  0  0  0  0
 17 19  1  0  0  0  0
 19 20  1  0  0  0  0
 19 21  1  0  0  0  0
M  END
>  <InstanceId>
1O0N_U3P_A_1101

>  <ChemCompId>
U3P

>  <PdbId>
1O0N

>  <ChainId>
A

>  <ResidueNumber>
1101

>  <InsertionCode>


>  <Model>
1

>  <AltIds>


>  <MissingHeavyAtoms>
0

>  <ObservedFormula>
C9 N2 O9 P

>  <Name>
3'-URIDINEMONOPHOSPHATE

>  <SystematicName>
[(2R,3S,4R,5R)-5-(2,4-dioxopyrimidin-1-yl)-4-hydroxy-2-(hydroxymethyl)oxolan-3-yl] dihydrogen phosphate

>  <Synonyms>


>  <Type>
NON-POLYMER

>  <Formula>
C9 H13 N2 O9 P

>  <MolecularWeight>
324.181

>  <ModifiedDate>
2011-06-04

>  <Parent>


>  <OneLetterCode>


>  <SubcomponentList>


>  <AmbiguousFlag>
N

>  <InChI>
InChI=1S/C9H13N2O9P/c12-3-4-7(20-21(16,17)18)6(14)8(19-4)11-2-1-5(13)10-9(11)15/h1-2,4,6-8,12,14H,3H2,(H,10,13,15)(H2,16,17,18)/t4-,6-,7-,8-/m1/s1

>  <InChIKey>
FOGRQMPFHUHIGU-XVFCMESISA-N

>  <SMILES>
C1=CN(C(=O)NC1=O)[C@H]2[C@@H]([C@@H]([C@H](O2)CO)OP(=O)(O)O)O

$$$$
