6EIQ_B6Z_A_501
  RCSB PDB08022004313D
Coordinates from PDB:6EIQ:A:501 Model:1 without hydrogens
 30 33  0  0  0  0            999 V2000
   -0.2610  -32.9370   -7.2130   C 0  0  0  0  0  0  0  0  0  0  0  0
   -1.0260  -34.0210   -7.8310   C 0  0  0  0  0  0  0  0  0  0  0  0
   -2.3230  -33.4320   -8.3010   N 0  0  0  0  0  0  0  0  0  0  0  0
   -3.4050  -33.5670   -7.2960   C 0  0  0  0  0  0  0  0  0  0  0  0
   -2.3050  -32.0290   -8.7840   C 0  0  0  0  0  0  0  0  0  0  0  0
   -0.8940  -31.6440   -9.2930   C 0  0  0  0  0  0  0  0  0  0  0  0
    0.1580  -32.0860   -8.3530   N 0  0  0  0  0  0  0  0  0  0  0  0
    1.4570  -31.7720   -8.5400   C 0  0  0  0  0  0  0  0  0  0  0  0
    2.3720  -32.7980   -8.7820   C 0  0  0  0  0  0  0  0  0  0  0  0
    3.7270  -32.5110   -8.9540   C 0  0  0  0  0  0  0  0  0  0  0  0
    4.6570  -33.4900   -9.2020   O 0  0  0  0  0  0  0  0  0  0  0  0
    4.7240  -34.6020   -8.2850   C 0  0  0  0  0  0  0  0  0  0  0  0
    1.9110  -30.4450   -8.4800   C 0  0  0  0  0  0  0  0  0  0  0  0
    3.2700  -30.1510   -8.6620   C 0  0  0  0  0  0  0  0  0  0  0  0
    4.1850  -31.1840   -8.9200   C 0  0  0  0  0  0  0  0  0  0  0  0
    5.5140  -31.0230   -9.0880   N 0  0  0  0  0  0  0  0  0  0  0  0
    6.0640  -30.0390   -9.8170   C 0  0  0  0  0  0  0  0  0  0  0  0
    5.4380  -29.1370  -11.0730   S 0  0  0  0  0  0  0  0  0  0  0  0
    7.3240  -29.6470   -9.5970   N 0  0  0  0  0  0  0  0  0  0  0  0
    7.7650  -28.6570  -10.3970   C 0  0  0  0  0  0  0  0  0  0  0  0
    9.0150  -28.2200  -10.2250   N 0  0  0  0  0  0  0  0  0  0  0  0
    6.8590  -28.2260  -11.2950   C 0  0  0  0  0  0  0  0  0  0  0  0
    7.1170  -27.2490  -12.1910   C 0  0  0  0  0  0  0  0  0  0  0  0
    8.2730  -26.8600  -12.3610   O 0  0  0  0  0  0  0  0  0  0  0  0
    6.0980  -26.6480  -12.9370   C 0  0  0  0  0  0  0  0  0  0  0  0
    4.9910  -26.0440  -12.3380   C 0  0  0  0  0  0  0  0  0  0  0  0
    4.0100  -25.4310  -13.1200   C 0  0  0  0  0  0  0  0  0  0  0  0
    4.1390  -25.3960  -14.5070   C 0  0  0  0  0  0  0  0  0  0  0  0
    5.2540  -25.9770  -15.1100   C 0  0  0  0  0  0  0  0  0  0  0  0
    6.2310  -26.5980  -14.3280   C 0  0  0  0  0  0  0  0  0  0  0  0
 29 28  2  0  0  0  0
 29 30  1  0  0  0  0
 28 27  1  0  0  0  0
 30 25  2  0  0  0  0
 27 26  2  0  0  0  0
 25 26  1  0  0  0  0
 25 23  1  0  0  0  0
 24 23  2  0  0  0  0
 23 22  1  0  0  0  0
 22 18  1  0  0  0  0
 22 20  2  0  0  0  0
 18 17  1  0  0  0  0
 20 21  1  0  0  0  0
 20 19  1  0  0  0  0
 17 19  2  0  0  0  0
 17 16  1  0  0  0  0
  6  5  1  0  0  0  0
  6  7  1  0  0  0  0
 11 10  1  0  0  0  0
 11 12  1  0  0  0  0
 16 15  1  0  0  0  0
 10 15  2  0  0  0  0
 10  9  1  0  0  0  0
 15 14  1  0  0  0  0
  5  3  1  0  0  0  0
  9  8  2  0  0  0  0
 14 13  2  0  0  0  0
  8 13  1  0  0  0  0
  8  7  1  0  0  0  0
  7  1  1  0  0  0  0
  3  2  1  0  0  0  0
  3  4  1  0  0  0  0
  2  1  1  0  0  0  0
M  END
>  <InstanceId>
6EIQ_B6Z_A_501

>  <ChemCompId>
B6Z

>  <PdbId>
6EIQ

>  <ChainId>
A

>  <ResidueNumber>
501

>  <InsertionCode>


>  <Model>
1

>  <AltIds>


>  <MissingHeavyAtoms>
0

>  <ObservedFormula>
C22 N5 O2 S

>  <Name>
[4-azanyl-2-[[2-methoxy-4-(4-methylpiperazin-1-yl)phenyl]amino]-1,3-thiazol-5-yl]-phenyl-methanone

>  <SystematicName>
[4-azanyl-2-[[2-methoxy-4-(4-methylpiperazin-1-yl)phenyl]amino]-1,3-thiazol-5-yl]-phenyl-methanone

>  <Synonyms>


>  <Type>
NON-POLYMER

>  <Formula>
C22 H25 N5 O2 S

>  <MolecularWeight>
423.531

>  <ModifiedDate>
2018-08-24

>  <Parent>


>  <OneLetterCode>


>  <SubcomponentList>


>  <AmbiguousFlag>
N

>  <InChI>
InChI=1S/C22H25N5O2S/c1-26-10-12-27(13-11-26)16-8-9-17(18(14-16)29-2)24-22-25-21(23)20(30-22)19(28)15-6-4-3-5-7-15/h3-9,14H,10-13,23H2,1-2H3,(H,24,25)

>  <InChIKey>
FAJIIOCNEPZQTR-UHFFFAOYSA-N

>  <SMILES>
CN1CCN(CC1)c2ccc(c(c2)OC)Nc3nc(c(s3)C(=O)c4ccccc4)N

$$$$
