1O2W_847_A_246
  RCSB PDB08012015363D
Coordinates from PDB:1O2W:A:246 Model:1 without hydrogens
 28 30  0  0  0  0            999 V2000
   44.0710   -2.9590   26.4710   C 0  0  0  0  0  0  0  0  0  0  0  0
   44.4520   -1.5810   26.4460   C 0  0  0  0  0  0  0  0  0  0  0  0
   44.3730   -0.7600   27.5730   C 0  0  0  0  0  0  0  0  0  0  0  0
   43.9140   -1.3460   28.7220   C 0  0  0  0  0  0  0  0  0  0  0  0
   43.5430   -2.6330   28.7990   C 0  0  0  0  0  0  0  0  0  0  0  0
   43.5980   -3.4890   27.7060   C 0  0  0  0  0  0  0  0  0  0  0  0
   44.1750   -3.7460   25.3230   C 0  0  0  0  0  0  0  0  0  0  0  0
   43.9530   -5.0330   25.4110   N 0  0  0  0  0  0  0  0  0  0  0  0
   44.4890   -3.1740   24.1790   N 0  3  0  0  0  0  0  0  0  0  0  0
   43.7440   -0.8520   29.8950   N 0  0  0  0  0  0  0  0  0  0  0  0
   43.1360   -2.9770   30.0040   N 0  0  0  0  0  0  0  0  0  0  0  0
   43.2930   -1.8190   30.6260   C 0  0  0  0  0  0  0  0  0  0  0  0
   43.0220   -1.6460   32.0050   C 0  0  0  0  0  0  0  0  0  0  0  0
   42.5790   -2.7150   32.8110   C 0  0  0  0  0  0  0  0  0  0  0  0
   42.3030   -2.5710   34.1780   C 0  0  0  0  0  0  0  0  0  0  0  0
   41.7700   -3.8380   34.9550   C 0  0  0  0  0  0  0  0  0  0  0  0
   40.2780   -4.0050   34.4620   C 0  0  0  0  0  0  0  0  0  0  0  0
   40.0010   -4.9840   33.7930   O 0  0  0  0  0  0  0  0  0  0  0  0
   39.4440   -3.1620   34.7340   O 0  5  0  0  0  0  0  0  0  0  0  0
   41.9590   -3.7570   36.5780   C 0  0  0  0  0  0  0  0  0  0  0  0
   42.9600   -4.8000   37.2550   C 0  0  0  0  0  0  0  0  0  0  0  0
   43.1590   -5.9060   36.7880   O 0  0  0  0  0  0  0  0  0  0  0  0
   43.5510   -4.4730   38.2740   O 0  5  0  0  0  0  0  0  0  0  0  0
   42.4850   -1.3000   34.7560   C 0  0  0  0  0  0  0  0  0  0  0  0
   42.9240   -0.2000   34.0050   C 0  0  0  0  0  0  0  0  0  0  0  0
   43.1830   -0.3900   32.6390   C 0  0  0  0  0  0  0  0  0  0  0  0
   43.5940    0.6950   31.9010   O 0  5  0  0  0  0  0  0  0  0  0  0
   43.1810    1.5710   34.8510  Br 0  0  0  0  0  0  0  0  0  0  0  0
  1  2  2  0  0  0  0
  1  6  1  0  0  0  0
  1  7  1  0  0  0  0
  2  3  1  0  0  0  0
  3  4  2  0  0  0  0
  4  5  1  0  0  0  0
  4 10  1  0  0  0  0
  5  6  2  0  0  0  0
  5 11  1  0  0  0  0
  7  8  1  0  0  0  0
  7  9  2  0  0  0  0
 10 12  1  0  0  0  0
 11 12  2  0  0  0  0
 12 13  1  0  0  0  0
 13 14  2  0  0  0  0
 13 26  1  0  0  0  0
 14 15  1  0  0  0  0
 15 16  1  0  0  0  0
 15 24  2  0  0  0  0
 16 17  1  0  0  0  0
 16 20  1  0  0  0  0
 17 18  2  0  0  0  0
 17 19  1  0  0  0  0
 20 21  1  0  0  0  0
 21 22  2  0  0  0  0
 21 23  1  0  0  0  0
 24 25  1  0  0  0  0
 25 26  2  0  0  0  0
 25 28  1  0  0  0  0
 26 27  1  0  0  0  0
M  CHG  4   9   1  19  -1  23  -1  27  -1
M  END
>  <InstanceId>
1O2W_847_A_246

>  <ChemCompId>
847

>  <PdbId>
1O2W

>  <ChainId>
A

>  <ResidueNumber>
246

>  <InsertionCode>


>  <Model>
1

>  <AltIds>


>  <MissingHeavyAtoms>
0

>  <ObservedFormula>
C18 N4 O5 Br

>  <Name>
2-(3-{5-[AMINO(IMINIO)METHYL]-1H-BENZIMIDAZOL-2-YL}-5-BROMO-4-OXIDOPHENYL)SUCCINATE

>  <SystematicName>
(2R)-2-[3-[5-(amino-azaniumylidene-methyl)-1H-benzimidazol-2-yl]-5-bromo-4-oxido-phenyl]butanedioate

>  <Synonyms>
CRA_16847

>  <Type>
NON-POLYMER

>  <Formula>
C18 H13 Br N4 O5

>  <MolecularWeight>
445.224

>  <ModifiedDate>
2020-06-17

>  <Parent>


>  <OneLetterCode>


>  <SubcomponentList>


>  <AmbiguousFlag>
N

>  <InChI>
InChI=1S/C18H15BrN4O5/c19-11-4-8(9(18(27)28)6-14(24)25)3-10(15(11)26)17-22-12-2-1-7(16(20)21)5-13(12)23-17/h1-5,9,26H,6H2,(H3,20,21)(H,22,23)(H,24,25)(H,27,28)/p-2/t9-/m1/s1

>  <InChIKey>
SJMNJNRKVVVGRB-SECBINFHSA-L

>  <SMILES>
c1cc2c(cc1C(=[NH2+])N)nc([nH]2)c3cc(cc(c3[O-])Br)[C@@H](CC(=O)[O-])C(=O)[O-]

$$$$
