2W8W_PLS_A_1420
  RCSB PDB08012018063D
Coordinates from PDB:2W8W:A:1420 Model:1 without hydrogens
 22 22  0  0  0  0            999 V2000
   30.4010   15.7950   11.7780   N 0  0  0  0  0  0  0  0  0  0  0  0
   31.4670   16.4680   11.0170   C 0  0  0  0  0  0  0  0  0  0  0  0
   32.4630   17.2110   11.9080   C 0  0  0  0  0  0  0  0  0  0  0  0
   31.8260   18.2140   12.7020   O 0  0  0  0  0  0  0  0  0  0  0  0
   32.2420   15.4390   10.2320   C 0  0  0  0  0  0  0  0  0  0  0  0
   32.1840   14.2430   10.5860   O 0  0  0  0  0  0  0  0  0  0  0  0
   32.9180   15.7980    9.2470   O 0  0  0  0  0  0  0  0  0  0  0  0
   27.1290   13.4640   14.8200   N 0  0  0  0  0  0  0  0  0  0  0  0
   27.1020   13.7010   13.4910   C 0  0  0  0  0  0  0  0  0  0  0  0
   25.9280   13.2390   12.6600   C 0  0  0  0  0  0  0  0  0  0  0  0
   28.1540   14.3740   12.8940   C 0  0  0  0  0  0  0  0  0  0  0  0
   28.0900   14.5990   11.5570   O 0  0  0  0  0  0  0  0  0  0  0  0
   29.2440   14.8060   13.6530   C 0  0  0  0  0  0  0  0  0  0  0  0
   30.3890   15.5290   13.0190   C 0  0  0  0  0  0  0  0  0  0  0  0
   29.2370   14.5360   15.0230   C 0  0  0  0  0  0  0  0  0  0  0  0
   28.1600   13.8570   15.5860   C 0  0  0  0  0  0  0  0  0  0  0  0
   30.3710   14.9460   15.9380   C 0  0  0  0  0  0  0  0  0  0  0  0
   30.3460   16.3450   16.1540   O 0  0  0  0  0  0  0  0  0  0  0  0
   31.6740   17.2000   16.4640   P 0  0  0  0  0  0  0  0  0  0  0  0
   32.4880   16.4530   17.4800   O 0  0  0  0  0  0  0  0  0  0  0  0
   32.3340   17.3870   15.1270   O 0  0  0  0  0  0  0  0  0  0  0  0
   31.0460   18.4700   17.0060   O 0  0  0  0  0  0  0  0  0  0  0  0
  1  2  1  0  0  0  0
  1 14  1  0  0  0  0
  2  3  1  0  0  0  0
  2  5  1  0  0  0  0
  3  4  1  0  0  0  0
  5  6  2  0  0  0  0
  5  7  1  0  0  0  0
  8  9  2  0  0  0  0
  8 16  1  0  0  0  0
  9 10  1  0  0  0  0
  9 11  1  0  0  0  0
 11 12  1  0  0  0  0
 11 13  2  0  0  0  0
 13 14  1  0  0  0  0
 13 15  1  0  0  0  0
 15 16  2  0  0  0  0
 15 17  1  0  0  0  0
 17 18  1  0  0  0  0
 18 19  1  0  0  0  0
 19 20  2  0  0  0  0
 19 21  1  0  0  0  0
 19 22  1  0  0  0  0
M  END
>  <InstanceId>
2W8W_PLS_A_1420

>  <ChemCompId>
PLS

>  <PdbId>
2W8W

>  <ChainId>
A

>  <ResidueNumber>
1420

>  <InsertionCode>


>  <Model>
1

>  <AltIds>


>  <MissingHeavyAtoms>
0

>  <ObservedFormula>
C11 N2 O8 P

>  <Name>
[3-HYDROXY-2-METHYL-5-PHOSPHONOOXYMETHYL-PYRIDIN-4-YLMETHYL]-SERINE

>  <SystematicName>
(2S)-3-hydroxy-2-[[3-hydroxy-2-methyl-5-(phosphonooxymethyl)pyridin-4-yl]methylamino]propanoic acid

>  <Synonyms>
PYRIDOXYL-SERINE-5-MONOPHOSPHATE

>  <Type>
NON-POLYMER

>  <Formula>
C11 H17 N2 O8 P

>  <MolecularWeight>
336.235

>  <ModifiedDate>
2020-06-17

>  <Parent>


>  <OneLetterCode>


>  <SubcomponentList>


>  <AmbiguousFlag>
N

>  <InChI>
InChI=1S/C11H17N2O8P/c1-6-10(15)8(3-13-9(4-14)11(16)17)7(2-12-6)5-21-22(18,19)20/h2,9,13-15H,3-5H2,1H3,(H,16,17)(H2,18,19,20)/t9-/m0/s1

>  <InChIKey>
ODVKKQWXKRZJLG-VIFPVBQESA-N

>  <SMILES>
Cc1c(c(c(cn1)COP(=O)(O)O)CN[C@@H](CO)C(=O)O)O

$$$$
