6MA5_J9V_A_1101
  RCSB PDB08022005293D
Coordinates from PDB:6MA5:A:1101 Model:1 without hydrogens
 37 40  0  0  0  0            999 V2000
    1.8900  -44.1550   16.2110   N 0  0  0  0  0  0  0  0  0  0  0  0
    0.6820  -44.7730   16.8090   C 0  0  0  0  0  0  0  0  0  0  0  0
   -0.2960  -49.4290   17.3760   C 0  0  0  0  0  0  0  0  0  0  0  0
   -1.8520  -46.4460   16.6800   C 0  0  0  0  0  0  0  0  0  0  0  0
   -2.5320  -45.8890   15.4000   C 0  0  0  0  0  0  0  0  0  0  0  0
   -2.7700  -44.5880   14.9960   C 0  0  0  0  0  0  0  0  0  0  0  0
   -3.7090  -45.6700   13.1570   C 0  0  0  0  0  0  0  0  0  0  0  0
   -0.3820  -43.5740   18.8040   C 0  0  0  0  0  0  0  0  0  0  0  0
    0.0520  -49.5170    9.4060   O 0  0  0  0  0  0  0  0  0  0  0  0
    0.0640  -48.5280   10.1160   C 0  0  0  0  0  0  0  0  0  0  0  0
    1.2020  -48.2760   10.8920   N 0  0  0  0  0  0  0  0  0  0  0  0
    1.3770  -47.1890   11.7520   C 0  0  0  0  0  0  0  0  0  0  0  0
    0.3160  -46.2330   11.8760   C 0  0  0  0  0  0  0  0  0  0  0  0
   -0.8800  -46.4930   11.0680   C 0  0  0  0  0  0  0  0  0  0  0  0
   -1.0200  -47.5490   10.2440   C 0  0  0  0  0  0  0  0  0  0  0  0
    0.5290  -45.1340   12.7770   C 0  0  0  0  0  0  0  0  0  0  0  0
    1.6790  -44.8810   13.5300   C 0  0  0  0  0  0  0  0  0  0  0  0
    1.8470  -43.4810   14.6950   S 0  0  0  0  0  0  0  0  0  0  0  0
    0.6990  -42.6680   14.5480   O 0  0  0  0  0  0  0  0  0  0  0  0
    0.6680  -46.3230   16.4800   C 0  0  0  0  0  0  0  0  0  0  0  0
   -0.5300  -47.0800   16.4350   N 0  0  0  0  0  0  0  0  0  0  0  0
   -0.4980  -48.5320   16.1010   C 0  0  0  0  0  0  0  0  0  0  0  0
   -0.4200  -48.8780   18.4770   O 0  0  0  0  0  0  0  0  0  0  0  0
   -0.0220  -50.6130   17.1330   O 0  0  0  0  0  0  0  0  0  0  0  0
   -3.4410  -44.4610   13.7210   C 0  0  0  0  0  0  0  0  0  0  0  0
   -3.1640  -46.9110   14.1700   S 0  0  0  0  0  0  0  0  0  0  0  0
    1.7430  -46.8410   16.2610   O 0  0  0  0  0  0  0  0  0  0  0  0
    0.6070  -44.4700   18.2980   C 0  0  0  0  0  0  0  0  0  0  0  0
   -1.2690  -43.0100   17.9100   O 0  0  0  0  0  0  0  0  0  0  0  0
   -2.4370  -42.3300   18.3560   C 0  0  0  0  0  0  0  0  0  0  0  0
   -0.4180  -43.2800   20.1760   C 0  0  0  0  0  0  0  0  0  0  0  0
    0.4900  -43.8600   21.0620   C 0  0  0  0  0  0  0  0  0  0  0  0
    1.4570  -44.7360   20.5840   C 0  0  0  0  0  0  0  0  0  0  0  0
    1.5040  -45.0220   19.2150   C 0  0  0  0  0  0  0  0  0  0  0  0
    3.0850  -42.8210   14.4580   O 0  0  0  0  0  0  0  0  0  0  0  0
    2.6930  -45.8690   13.3910   C 0  0  0  0  0  0  0  0  0  0  0  0
    2.5620  -46.9530   12.5450   C 0  0  0  0  0  0  0  0  0  0  0  0
  9 10  2  0  0  0  0
 10 15  1  0  0  0  0
 10 11  1  0  0  0  0
 15 14  2  0  0  0  0
 11 12  1  0  0  0  0
 14 13  1  0  0  0  0
 12 13  2  0  0  0  0
 12 37  1  0  0  0  0
 13 16  1  0  0  0  0
 37 36  2  0  0  0  0
 16 17  2  0  0  0  0
  7 25  2  0  0  0  0
  7 26  1  0  0  0  0
 36 17  1  0  0  0  0
 17 18  1  0  0  0  0
 25  6  1  0  0  0  0
 26  5  1  0  0  0  0
 35 18  2  0  0  0  0
 19 18  2  0  0  0  0
 18  1  1  0  0  0  0
  6  5  2  0  0  0  0
  5  4  1  0  0  0  0
 22 21  1  0  0  0  0
 22  3  1  0  0  0  0
  1  2  1  0  0  0  0
 27 20  2  0  0  0  0
 21 20  1  0  0  0  0
 21  4  1  0  0  0  0
 20  2  1  0  0  0  0
  2 28  1  0  0  0  0
 24  3  2  0  0  0  0
  3 23  1  0  0  0  0
 29 30  1  0  0  0  0
 29  8  1  0  0  0  0
 28  8  2  0  0  0  0
 28 34  1  0  0  0  0
  8 31  1  0  0  0  0
 34 33  2  0  0  0  0
 31 32  2  0  0  0  0
 33 32  1  0  0  0  0
M  END
>  <InstanceId>
6MA5_J9V_A_1101

>  <ChemCompId>
J9V

>  <PdbId>
6MA5

>  <ChainId>
A

>  <ResidueNumber>
1101

>  <InsertionCode>


>  <Model>
1

>  <AltIds>


>  <MissingHeavyAtoms>
0

>  <ObservedFormula>
C25 N3 O7 S2

>  <Name>
N-[(2R)-2-(2-methoxyphenyl)-2-{[(2-oxo-1,2-dihydroquinolin-6-yl)sulfonyl]amino}acetyl]-N-[(thiophen-2-yl)methyl]glycine

>  <SystematicName>
2-[[(2~{R})-2-(2-methoxyphenyl)-2-[(2-oxidanylidene-1~{H}-quinolin-6-yl)sulfonylamino]ethanoyl]-(thiophen-2-ylmethyl)amino]ethanoic acid

>  <Synonyms>


>  <Type>
NON-POLYMER

>  <Formula>
C25 H23 N3 O7 S2

>  <MolecularWeight>
541.596

>  <ModifiedDate>
2018-10-12

>  <Parent>


>  <OneLetterCode>


>  <SubcomponentList>


>  <AmbiguousFlag>
N

>  <InChI>
InChI=1S/C25H23N3O7S2/c1-35-21-7-3-2-6-19(21)24(25(32)28(15-23(30)31)14-17-5-4-12-36-17)27-37(33,34)18-9-10-20-16(13-18)8-11-22(29)26-20/h2-13,24,27H,14-15H2,1H3,(H,26,29)(H,30,31)/t24-/m1/s1

>  <InChIKey>
OIUMFGYEVQJCBR-XMMPIXPASA-N

>  <SMILES>
COc1ccccc1[C@H](C(=O)N(Cc2cccs2)CC(=O)O)NS(=O)(=O)c3ccc4c(c3)C=CC(=O)N4

$$$$
