4ZWX_5KZ_A_304
  RCSB PDB08022000413D
Coordinates from PDB:4ZWX:A:304 Model:1 without hydrogens
 37 37  0  0  0  0            999 V2000
    3.3710    9.5540   81.8260   C 0  0  0  0  0  0  0  0  0  0  0  0
    3.9330   10.9280   81.9430   C 0  0  0  0  0  0  0  0  0  0  0  0
    5.2910   11.1350   81.3920   C 0  0  0  0  0  0  0  0  0  0  0  0
    5.9910   10.0410   80.6100   C 0  0  0  0  0  0  0  0  0  0  0  0
    6.1880    7.6350   80.5570   C 0  0  0  0  0  0  0  0  0  0  0  0
    2.9510   11.9130   81.4700   O 0  0  0  0  0  0  0  0  0  0  0  0
    1.2930   13.6390   82.2750   C 0  0  0  0  0  0  0  0  0  0  0  0
    2.6190   12.8780   82.4450   C 0  0  0  0  0  0  0  0  0  0  0  0
    3.3500   13.0990   83.3600   O 0  0  0  0  0  0  0  0  0  0  0  0
    5.5160   12.5710   80.9980   O 0  0  0  0  0  0  0  0  0  0  0  0
    5.2070   13.2990   79.8170   C 0  0  0  0  0  0  0  0  0  0  0  0
    4.5420   12.9070   78.9150   O 0  0  0  0  0  0  0  0  0  0  0  0
    5.8060   14.7220   79.7690   C 0  0  0  0  0  0  0  0  0  0  0  0
    6.3920   10.3810   79.2740   O 0  0  0  0  0  0  0  0  0  0  0  0
    7.7950   10.4040   79.1320   C 0  0  0  0  0  0  0  0  0  0  0  0
    8.4820   10.3800   80.1050   O 0  0  0  0  0  0  0  0  0  0  0  0
    8.4180   10.4480   77.7230   C 0  0  0  0  0  0  0  0  0  0  0  0
    5.2400    8.6820   80.5600   C 0  0  0  0  0  0  0  0  0  0  0  0
    7.0700    7.8880   81.6460   O 0  0  0  0  0  0  0  0  0  0  0  0
    8.1710    7.0050   81.6740   C 0  0  0  0  0  0  0  0  0  0  0  0
    9.0530    7.1100   82.4700   O 0  0  0  0  0  0  0  0  0  0  0  0
    8.1890    5.8940   80.6290   C 0  0  0  0  0  0  0  0  0  0  0  0
    4.4720    8.6180   81.8790   O 0  0  0  0  0  0  0  0  0  0  0  0
    2.5130    9.2550   83.3790   S 0  0  0  0  0  0  0  0  0  0  0  0
    3.6480    9.5560   84.5160   O 0  0  0  0  0  0  0  0  0  0  0  0
    1.1690   10.2140   83.4360   O 0  0  0  0  0  0  0  0  0  0  0  0
    2.0760    7.5780   83.3790   N 0  0  0  0  0  0  0  0  0  0  0  0
    0.9790    7.4380   82.3940   C 0  0  0  0  0  0  0  0  0  0  0  0
   -0.3540    7.3180   83.1840   C 0  0  0  0  0  0  0  0  0  0  0  0
   -0.1850    6.2650   84.3200   C 0  0  0  0  0  0  0  0  0  0  0  0
   -1.5530    5.6580   84.6820   C 0  0  0  0  0  0  0  0  0  0  0  0
   -1.4620    4.7510   85.9320   C 0  0  0  0  0  0  0  0  0  0  0  0
   -1.0070    3.4990   85.4580   O 0  0  0  0  0  0  0  0  0  0  0  0
   -1.4440    2.1660   86.3500   S 0  0  0  0  0  0  0  0  0  0  0  0
   -2.8720    2.3210   86.0500   O 0  0  0  0  0  0  0  0  0  0  0  0
   -0.6350    2.5320   87.6970   O 0  0  0  0  0  0  0  0  0  0  0  0
   -0.7150    0.8550   85.5480   N 0  0  0  0  0  0  0  0  0  0  0  0
 17 15  1  0  0  0  0
 12 11  2  0  0  0  0
 15 14  1  0  0  0  0
 15 16  2  0  0  0  0
 14  4  1  0  0  0  0
 13 11  1  0  0  0  0
 11 10  1  0  0  0  0
  5 18  1  0  0  0  0
  5 19  1  0  0  0  0
 18  4  1  0  0  0  0
 18 23  1  0  0  0  0
  4  3  1  0  0  0  0
 22 20  1  0  0  0  0
 10  3  1  0  0  0  0
  3  2  1  0  0  0  0
  6  2  1  0  0  0  0
  6  8  1  0  0  0  0
 19 20  1  0  0  0  0
 20 21  2  0  0  0  0
  1 23  1  0  0  0  0
  1  2  1  0  0  0  0
  1 24  1  0  0  0  0
  7  8  1  0  0  0  0
 28 29  1  0  0  0  0
 28 27  1  0  0  0  0
  8  9  2  0  0  0  0
 29 30  1  0  0  0  0
 27 24  1  0  0  0  0
 24 26  2  0  0  0  0
 24 25  2  0  0  0  0
 30 31  1  0  0  0  0
 31 32  1  0  0  0  0
 33 32  1  0  0  0  0
 33 34  1  0  0  0  0
 37 34  1  0  0  0  0
 35 34  2  0  0  0  0
 34 36  2  0  0  0  0
M  END
>  <InstanceId>
4ZWX_5KZ_A_304

>  <ChemCompId>
5KZ

>  <PdbId>
4ZWX

>  <ChainId>
A

>  <ResidueNumber>
304

>  <InsertionCode>


>  <Model>
1

>  <AltIds>


>  <MissingHeavyAtoms>
0

>  <ObservedFormula>
C19 N2 O14 S2

>  <Name>
(1S)-2,3,4,6-tetra-O-acetyl-1,5-anhydro-1-{[5-(sulfamoyloxy)pentyl]sulfamoyl}-D-allitol

>  <SystematicName>
[(2R,3R,4R,5R,6S)-3,4,5-triacetyloxy-6-(5-sulfamoyloxypentylsulfamoyl)oxan-2-yl]methyl ethanoate

>  <Synonyms>


>  <Type>
NON-POLYMER

>  <Formula>
C19 H32 N2 O14 S2

>  <MolecularWeight>
576.592

>  <ModifiedDate>
2015-10-23

>  <Parent>


>  <OneLetterCode>


>  <SubcomponentList>


>  <AmbiguousFlag>
N

>  <InChI>
InChI=1S/C19H32N2O14S2/c1-11(22)30-10-15-16(32-12(2)23)17(33-13(3)24)18(34-14(4)25)19(35-15)36(26,27)21-8-6-5-7-9-31-37(20,28)29/h15-19,21H,5-10H2,1-4H3,(H2,20,28,29)/t15-,16-,17-,18-,19+/m1/s1

>  <InChIKey>
CXIJBWKOZIQDPV-NNIGNNQHSA-N

>  <SMILES>
CC(=O)OC[C@@H]1[C@H]([C@H]([C@H]([C@@H](O1)S(=O)(=O)NCCCCCOS(=O)(=O)N)OC(=O)C)OC(=O)C)OC(=O)C

$$$$
