5FLQ_IO2_A_1264
  RCSB PDB08022001243D
Coordinates from PDB:5FLQ:A:1264 Model:1 without hydrogens
 18 19  0  0  0  0            999 V2000
   -0.4400    9.2610   14.4440   C 0  0  0  0  0  0  0  0  0  0  0  0
   -0.1850    8.5990   13.2600   C 0  0  0  0  0  0  0  0  0  0  0  0
   -1.0970    7.6930   12.7660   C 0  0  0  0  0  0  0  0  0  0  0  0
   -2.2740    7.4270   13.4370   C 0  0  0  0  0  0  0  0  0  0  0  0
   -2.5150    8.0950   14.6170   C 0  0  0  0  0  0  0  0  0  0  0  0
   -1.6060    9.0020   15.1230   C 0  0  0  0  0  0  0  0  0  0  0  0
   -3.2210    6.4380   12.8260   C 0  0  0  0  0  0  0  0  0  0  0  0
   -4.5040    6.3250   13.4750   O 0  0  0  0  0  0  0  0  0  0  0  0
   -4.7120    5.2610   14.3430   C 0  0  0  0  0  0  0  0  0  0  0  0
   -3.7880    4.2860   14.6580   C 0  0  0  0  0  0  0  0  0  0  0  0
   -4.1360    3.2870   15.5430   C 0  0  0  0  0  0  0  0  0  0  0  0
   -5.3750    3.2230   16.1380   C 0  0  0  0  0  0  0  0  0  0  0  0
   -6.2970    4.2000   15.8190   C 0  0  0  0  0  0  0  0  0  0  0  0
   -5.9600    5.2010   14.9220   C 0  0  0  0  0  0  0  0  0  0  0  0
   -5.6520    2.1060   17.1250   C 0  0  0  0  0  0  0  0  0  0  0  0
   -6.3420    0.9770   16.4380   C 0  0  0  0  0  0  0  0  0  0  0  0
   -5.6280    0.0120   15.9630   O 0  0  0  0  0  0  0  0  0  0  0  0
   -7.5800    1.1730   16.4480   O 0  0  0  0  0  0  0  0  0  0  0  0
  2  1  2  0  0  0  0
  1  6  1  0  0  0  0
  3  2  1  0  0  0  0
  3  4  2  0  0  0  0
  7  4  1  0  0  0  0
  4  5  1  0  0  0  0
  5  6  2  0  0  0  0
  7  8  1  0  0  0  0
  8  9  1  0  0  0  0
  9 10  2  0  0  0  0
  9 14  1  0  0  0  0
 10 11  1  0  0  0  0
 11 12  2  0  0  0  0
 13 12  1  0  0  0  0
 12 15  1  0  0  0  0
 14 13  2  0  0  0  0
 16 15  1  0  0  0  0
 18 16  2  0  0  0  0
 16 17  1  0  0  0  0
M  END
>  <InstanceId>
5FLQ_IO2_A_1264

>  <ChemCompId>
IO2

>  <PdbId>
5FLQ

>  <ChainId>
A

>  <ResidueNumber>
1264

>  <InsertionCode>


>  <Model>
1

>  <AltIds>


>  <MissingHeavyAtoms>
0

>  <ObservedFormula>
C15 O3

>  <Name>
2-(4-phenylmethoxyphenyl)ethanoic acid

>  <SystematicName>
2-(4-phenylmethoxyphenyl)ethanoic acid

>  <Synonyms>


>  <Type>
NON-POLYMER

>  <Formula>
C15 H14 O3

>  <MolecularWeight>
242.27

>  <ModifiedDate>
2016-02-26

>  <Parent>


>  <OneLetterCode>


>  <SubcomponentList>


>  <AmbiguousFlag>
N

>  <InChI>
InChI=1S/C15H14O3/c16-15(17)10-12-6-8-14(9-7-12)18-11-13-4-2-1-3-5-13/h1-9H,10-11H2,(H,16,17)

>  <InChIKey>
XJHGAJLIKDAOPE-UHFFFAOYSA-N

>  <SMILES>
c1ccc(cc1)COc2ccc(cc2)CC(=O)O

$$$$
