4KYK_IMN_B_300
  RCSB PDB08012022193D
Coordinates from PDB:4KYK:B:300 Model:1 without hydrogens
 25 27  0  0  0  0            999 V2000
   20.6010   13.9640   61.0470   C 0  0  0  0  0  0  0  0  0  0  0  0
   20.5860   15.1390   60.2820   C 0  0  0  0  0  0  0  0  0  0  0  0
   20.4870   15.0430   58.8970   C 0  0  0  0  0  0  0  0  0  0  0  0
   20.4090   13.7890   58.3050   C 0  0  0  0  0  0  0  0  0  0  0  0
   20.4350   12.6310   59.0700   C 0  0  0  0  0  0  0  0  0  0  0  0
   20.5320   12.7130   60.4470   C 0  0  0  0  0  0  0  0  0  0  0  0
   20.2140   12.4240   56.3570   C 0  0  0  0  0  0  0  0  0  0  0  0
   20.6680   16.2440   61.1970   C 0  0  0  0  0  0  0  0  0  0  0  0
   20.7100   15.7530   62.4570   C 0  0  0  0  0  0  0  0  0  0  0  0
   20.7790   13.4600   63.5280   C 0  0  0  0  0  0  0  0  0  0  0  0
   19.8850   12.2610   63.5980   C 0  0  0  0  0  0  0  0  0  0  0  0
   20.3250   11.1460   64.3000   C 0  0  0  0  0  0  0  0  0  0  0  0
   19.5440   10.0110   64.3890   C 0  0  0  0  0  0  0  0  0  0  0  0
   18.3190    9.9840   63.7590   C 0  0  0  0  0  0  0  0  0  0  0  0
   17.8480   11.0830   63.0720   C 0  0  0  0  0  0  0  0  0  0  0  0
   18.6310   12.2190   62.9950   C 0  0  0  0  0  0  0  0  0  0  0  0
   20.7540   16.5110   63.7390   C 0  0  0  0  0  0  0  0  0  0  0  0
   20.7380   17.6940   60.7970   C 0  0  0  0  0  0  0  0  0  0  0  0
   19.4750   18.1200   60.0980   C 0  0  0  0  0  0  0  0  0  0  0  0
   20.6820   14.3510   62.4100   N 0  0  0  0  0  0  0  0  0  0  0  0
   20.3000   13.7190   56.9410   O 0  0  0  0  0  0  0  0  0  0  0  0
   21.5920   13.6680   64.4080   O 0  0  0  0  0  0  0  0  0  0  0  0
   19.4550   18.7500   59.0700   O 0  0  0  0  0  0  0  0  0  0  0  0
   18.4060   17.7310   60.7020   O 0  0  0  0  0  0  0  0  0  0  0  0
   17.3840    8.5140   63.7740  Cl 0  0  0  0  0  0  0  0  0  0  0  0
  1  2  2  0  0  0  0
  1  6  1  0  0  0  0
  1 20  1  0  0  0  0
  2  3  1  0  0  0  0
  2  8  1  0  0  0  0
  3  4  2  0  0  0  0
  4  5  1  0  0  0  0
  4 21  1  0  0  0  0
  5  6  2  0  0  0  0
  7 21  1  0  0  0  0
  8  9  2  0  0  0  0
  8 18  1  0  0  0  0
  9 17  1  0  0  0  0
  9 20  1  0  0  0  0
 10 11  1  0  0  0  0
 10 20  1  0  0  0  0
 10 22  2  0  0  0  0
 11 12  2  0  0  0  0
 11 16  1  0  0  0  0
 12 13  1  0  0  0  0
 13 14  2  0  0  0  0
 14 15  1  0  0  0  0
 14 25  1  0  0  0  0
 15 16  2  0  0  0  0
 18 19  1  0  0  0  0
 19 23  2  0  0  0  0
 19 24  1  0  0  0  0
M  END
>  <InstanceId>
4KYK_IMN_B_300

>  <ChemCompId>
IMN

>  <PdbId>
4KYK

>  <ChainId>
B

>  <ResidueNumber>
300

>  <InsertionCode>


>  <Model>
1

>  <AltIds>


>  <MissingHeavyAtoms>
0

>  <ObservedFormula>
C19 N O4 Cl

>  <Name>
INDOMETHACIN

>  <SystematicName>
2-[1-(4-chlorophenyl)carbonyl-5-methoxy-2-methyl-indol-3-yl]ethanoic acid

>  <Synonyms>


>  <Type>
NON-POLYMER

>  <Formula>
C19 H16 Cl N O4

>  <MolecularWeight>
357.788

>  <ModifiedDate>
2011-06-04

>  <Parent>


>  <OneLetterCode>


>  <SubcomponentList>


>  <AmbiguousFlag>
N

>  <InChI>
InChI=1S/C19H16ClNO4/c1-11-15(10-18(22)23)16-9-14(25-2)7-8-17(16)21(11)19(24)12-3-5-13(20)6-4-12/h3-9H,10H2,1-2H3,(H,22,23)

>  <InChIKey>
CGIGDMFJXJATDK-UHFFFAOYSA-N

>  <SMILES>
Cc1c(c2cc(ccc2n1C(=O)c3ccc(cc3)Cl)OC)CC(=O)O

$$$$
