3OUJ_AKG_A_417
  RCSB PDB08012020053D
Coordinates from PDB:3OUJ:A:417 Model:1 without hydrogens
 10  9  0  0  0  0            999 V2000
   14.2120   24.7980   -5.4660   C 0  0  0  0  0  0  0  0  0  0  0  0
   13.6390   24.3690   -6.5140   O 0  0  0  0  0  0  0  0  0  0  0  0
   15.0900   24.1210   -4.8870   O 0  0  0  0  0  0  0  0  0  0  0  0
   13.8490   26.1120   -4.8990   C 0  0  0  0  0  0  0  0  0  0  0  0
   13.1970   26.9100   -5.5590   O 0  0  0  0  0  0  0  0  0  0  0  0
   14.2630   26.4810   -3.4840   C 0  0  0  0  0  0  0  0  0  0  0  0
   13.2770   27.5000   -2.9140   C 0  0  0  0  0  0  0  0  0  0  0  0
   13.6190   27.9000   -1.4970   C 0  0  0  0  0  0  0  0  0  0  0  0
   14.4110   27.2000   -0.8280   O 0  0  0  0  0  0  0  0  0  0  0  0
   13.0820   28.9310   -1.0380   O 0  0  0  0  0  0  0  0  0  0  0  0
  1  2  2  0  0  0  0
  1  3  1  0  0  0  0
  1  4  1  0  0  0  0
  4  5  2  0  0  0  0
  4  6  1  0  0  0  0
  6  7  1  0  0  0  0
  7  8  1  0  0  0  0
  8  9  2  0  0  0  0
  8 10  1  0  0  0  0
M  END
>  <InstanceId>
3OUJ_AKG_A_417

>  <ChemCompId>
AKG

>  <PdbId>
3OUJ

>  <ChainId>
A

>  <ResidueNumber>
417

>  <InsertionCode>


>  <Model>
1

>  <AltIds>


>  <MissingHeavyAtoms>
0

>  <ObservedFormula>
C5 O5

>  <Name>
2-OXOGLUTARIC ACID

>  <SystematicName>
2-oxidanylidenepentanedioic acid

>  <Synonyms>


>  <Type>
NON-POLYMER

>  <Formula>
C5 H6 O5

>  <MolecularWeight>
146.098

>  <ModifiedDate>
2017-01-17

>  <Parent>


>  <OneLetterCode>


>  <SubcomponentList>


>  <AmbiguousFlag>
N

>  <InChI>
InChI=1S/C5H6O5/c6-3(5(9)10)1-2-4(7)8/h1-2H2,(H,7,8)(H,9,10)

>  <InChIKey>
KPGXRSRHYNQIFN-UHFFFAOYSA-N

>  <SMILES>
C(CC(=O)O)C(=O)C(=O)O

$$$$
