4IGT_3ZA_A_801
  RCSB PDB08012022013D
Coordinates from PDB:4IGT:A:801 Model:1 without hydrogens
 17 16  0  0  0  0            999 V2000
   19.4510   12.1410   23.4220   O 0  0  0  0  0  0  0  0  0  0  0  0
   19.2510   14.7980   22.3760   C 0  0  0  0  0  0  0  0  0  0  0  0
   21.7950   14.6570   22.9630   C 0  0  0  0  0  0  0  0  0  0  0  0
   23.0790   12.6440   27.2090   O 0  0  0  0  0  0  0  0  0  0  0  0
   23.5090   14.7970   26.8430   O 0  0  0  0  0  0  0  0  0  0  0  0
   23.0980   15.3050   22.4470   C 0  0  0  0  0  0  0  0  0  0  0  0
   19.2310   13.5570   21.4800   C 0  0  0  0  0  0  0  0  0  0  0  0
   22.8430   13.4700   24.9730   C 0  0  0  0  0  0  0  0  0  0  0  0
   21.7580   14.4420   24.4960   C 0  0  0  0  0  0  0  0  0  0  0  0
   20.6060   15.5020   22.4410   C 0  0  0  0  0  0  0  0  0  0  0  0
   22.4560   12.0460   24.7350   N 0  0  0  0  0  0  0  0  0  0  0  0
   23.1690   13.6650   26.4650   C 0  0  0  0  0  0  0  0  0  0  0  0
   23.4150   15.0410   21.2530   O 0  0  0  0  0  0  0  0  0  0  0  0
   23.7750   16.0290   23.2140   O 0  0  0  0  0  0  0  0  0  0  0  0
   19.3910   13.5510   20.2480   O 0  0  0  0  0  0  0  0  0  0  0  0
   19.0090   12.3500   22.0940   N 0  0  0  0  0  0  0  0  0  0  0  0
   19.1660   11.1180   21.3330   C 0  0  0  0  0  0  0  0  0  0  0  0
  2 10  1  0  0  0  0
  2  7  1  0  0  0  0
 10  3  1  0  0  0  0
  7 15  2  0  0  0  0
  7 16  1  0  0  0  0
 16  1  1  0  0  0  0
 16 17  1  0  0  0  0
  3  9  1  0  0  0  0
  3  6  1  0  0  0  0
  9  8  1  0  0  0  0
  6 13  2  0  0  0  0
  6 14  1  0  0  0  0
  5 12  2  0  0  0  0
  8 12  1  0  0  0  0
  8 11  1  0  0  0  0
 12  4  1  0  0  0  0
M  END
>  <InstanceId>
4IGT_3ZA_A_801

>  <ChemCompId>
3ZA

>  <PdbId>
4IGT

>  <ChainId>
A

>  <ResidueNumber>
801

>  <InsertionCode>


>  <Model>
1

>  <AltIds>


>  <MissingHeavyAtoms>
0

>  <ObservedFormula>
C9 N2 O6

>  <Name>
(4R)-4-{3-[hydroxy(methyl)amino]-3-oxopropyl}-L-glutamic acid

>  <SystematicName>
(2S,4R)-2-azanyl-4-[3-[methyl(oxidanyl)amino]-3-oxidanylidene-propyl]pentanedioic acid

>  <Synonyms>


>  <Type>
NON-POLYMER

>  <Formula>
C9 H16 N2 O6

>  <MolecularWeight>
248.233

>  <ModifiedDate>
2013-03-01

>  <Parent>


>  <OneLetterCode>


>  <SubcomponentList>


>  <AmbiguousFlag>
N

>  <InChI>
InChI=1S/C9H16N2O6/c1-11(17)7(12)3-2-5(8(13)14)4-6(10)9(15)16/h5-6,17H,2-4,10H2,1H3,(H,13,14)(H,15,16)/t5-,6+/m1/s1

>  <InChIKey>
YWTXUGAXXGHUOR-RITPCOANSA-N

>  <SMILES>
CN(C(=O)CC[C@H](C[C@@H](C(=O)O)N)C(=O)O)O

$$$$
