2P7Z_OHT_A_201
  RCSB PDB08012017423D
Coordinates from PDB:2P7Z:A:201 Model:1 without hydrogens
 29 31  0  0  0  0            999 V2000
   48.2330  -29.3590  -99.9140   C 0  0  0  0  0  0  0  0  0  0  0  0
   49.2520  -29.0890  -98.7940   C 0  0  0  0  0  0  0  0  0  0  0  0
   49.0700  -29.9170  -97.4700   C 0  0  0  0  0  0  0  0  0  0  0  0
   49.3450  -31.3290  -97.7080   C 0  0  0  0  0  0  0  0  0  0  0  0
   48.3500  -32.2940  -97.4170   C 0  0  0  0  0  0  0  0  0  0  0  0
   48.6170  -33.6620  -97.6420   C 0  0  0  0  0  0  0  0  0  0  0  0
   49.8820  -34.0730  -98.1570   C 0  0  0  0  0  0  0  0  0  0  0  0
   50.8800  -33.1210  -98.4480   C 0  0  0  0  0  0  0  0  0  0  0  0
   50.6150  -31.7490  -98.2250   C 0  0  0  0  0  0  0  0  0  0  0  0
   48.7180  -29.4030  -96.2040   C 0  0  0  0  0  0  0  0  0  0  0  0
   48.2640  -27.9550  -95.9440   C 0  0  0  0  0  0  0  0  0  0  0  0
   49.0150  -27.0930  -95.0740   C 0  0  0  0  0  0  0  0  0  0  0  0
   48.5780  -25.7570  -94.8150   C 0  0  0  0  0  0  0  0  0  0  0  0
   47.3880  -25.2720  -95.4250   C 0  0  0  0  0  0  0  0  0  0  0  0
   46.9940  -23.9930  -95.1540   O 0  0  0  0  0  0  0  0  0  0  0  0
   46.6330  -26.0950  -96.2870   C 0  0  0  0  0  0  0  0  0  0  0  0
   47.0660  -27.4280  -96.5420   C 0  0  0  0  0  0  0  0  0  0  0  0
   48.7560  -30.2940  -95.0090   C 0  0  0  0  0  0  0  0  0  0  0  0
   49.9430  -30.9790  -94.5770   C 0  0  0  0  0  0  0  0  0  0  0  0
   49.9380  -31.7390  -93.3700   C 0  0  0  0  0  0  0  0  0  0  0  0
   48.7470  -31.8250  -92.5830   C 0  0  0  0  0  0  0  0  0  0  0  0
   48.7750  -32.5580  -91.4860   O 0  0  0  0  0  0  0  0  0  0  0  0
   48.5020  -32.0500  -90.1680   C 0  0  0  0  0  0  0  0  0  0  0  0
   48.6480  -33.2450  -89.2000   C 0  0  0  0  0  0  0  0  0  0  0  0
   49.9920  -33.4070  -88.5720   N 0  0  0  0  0  0  0  0  0  0  0  0
   50.9960  -32.6270  -89.3330   C 0  0  0  0  0  0  0  0  0  0  0  0
   50.0270  -32.9800  -87.1480   C 0  0  0  0  0  0  0  0  0  0  0  0
   47.5780  -31.1490  -93.0330   C 0  0  0  0  0  0  0  0  0  0  0  0
   47.5760  -30.3890  -94.2270   C 0  0  0  0  0  0  0  0  0  0  0  0
  1  2  1  0  0  0  0
  2  3  1  0  0  0  0
  3  4  1  0  0  0  0
  3 10  2  0  0  0  0
  4  5  1  0  0  0  0
  4  9  2  0  0  0  0
  5  6  2  0  0  0  0
  6  7  1  0  0  0  0
  7  8  2  0  0  0  0
  8  9  1  0  0  0  0
 10 11  1  0  0  0  0
 10 18  1  0  0  0  0
 11 12  1  0  0  0  0
 11 17  2  0  0  0  0
 12 13  2  0  0  0  0
 13 14  1  0  0  0  0
 14 15  1  0  0  0  0
 14 16  2  0  0  0  0
 16 17  1  0  0  0  0
 18 19  2  0  0  0  0
 18 29  1  0  0  0  0
 19 20  1  0  0  0  0
 20 21  2  0  0  0  0
 21 22  1  0  0  0  0
 21 28  1  0  0  0  0
 22 23  1  0  0  0  0
 23 24  1  0  0  0  0
 24 25  1  0  0  0  0
 25 26  1  0  0  0  0
 25 27  1  0  0  0  0
 28 29  2  0  0  0  0
M  END
>  <InstanceId>
2P7Z_OHT_A_201

>  <ChemCompId>
OHT

>  <PdbId>
2P7Z

>  <ChainId>
A

>  <ResidueNumber>
201

>  <InsertionCode>


>  <Model>
1

>  <AltIds>


>  <MissingHeavyAtoms>
0

>  <ObservedFormula>
C26 N O2

>  <Name>
4-HYDROXYTAMOXIFEN

>  <SystematicName>
4-[(Z)-1-[4-(2-dimethylaminoethoxy)phenyl]-2-phenyl-but-1-enyl]phenol

>  <Synonyms>


>  <Type>
NON-POLYMER

>  <Formula>
C26 H29 N O2

>  <MolecularWeight>
387.514

>  <ModifiedDate>
2011-06-04

>  <Parent>


>  <OneLetterCode>


>  <SubcomponentList>


>  <AmbiguousFlag>
N

>  <InChI>
InChI=1S/C26H29NO2/c1-4-25(20-8-6-5-7-9-20)26(21-10-14-23(28)15-11-21)22-12-16-24(17-13-22)29-19-18-27(2)3/h5-17,28H,4,18-19H2,1-3H3/b26-25-

>  <InChIKey>
TXUZVZSFRXZGTL-QPLCGJKRSA-N

>  <SMILES>
CC/C(=C(\c1ccc(cc1)O)/c2ccc(cc2)OCCN(C)C)/c3ccccc3

$$$$
