5J8U_6DL_A_301
  RCSB PDB08022001533D
Coordinates from PDB:5J8U:A:301 Model:1 without hydrogens
 21 23  0  0  0  0            999 V2000
   37.9120   -0.0570   -9.1930   C 0  0  0  0  0  0  0  0  0  0  0  0
   38.5030   -1.3270   -9.0760   C 0  0  0  0  0  0  0  0  0  0  0  0
   39.8740   -1.4260   -8.8380   C 0  0  0  0  0  0  0  0  0  0  0  0
   42.1160   -0.3780   -8.6330   C 0  0  0  0  0  0  0  0  0  0  0  0
   44.2820   -0.1090   -9.0480   C 0  0  0  0  0  0  0  0  0  0  0  0
   42.7610    1.0740  -10.5590   C 0  0  0  0  0  0  0  0  0  0  0  0
   42.9570    2.4500  -10.4340   C 0  0  0  0  0  0  0  0  0  0  0  0
   42.6390    3.2890  -11.5010   C 0  0  0  0  0  0  0  0  0  0  0  0
   42.2600    0.5410  -11.7540   C 0  0  0  0  0  0  0  0  0  0  0  0
   40.6520   -0.2520   -8.7990   C 0  0  0  0  0  0  0  0  0  0  0  0
   40.0480    1.0140   -8.9350   C 0  0  0  0  0  0  0  0  0  0  0  0
   38.6900    1.1170   -9.1660   C 0  0  0  0  0  0  0  0  0  0  0  0
   36.5990    0.0560   -9.4740   O 0  0  0  0  0  0  0  0  0  0  0  0
   40.4820   -2.6270   -8.6630   O 0  0  0  0  0  0  0  0  0  0  0  0
   42.7470   -1.1230   -7.7580   N 0  0  0  0  0  0  0  0  0  0  0  0
   44.1200   -0.9510   -8.0010   N 0  0  0  0  0  0  0  0  0  0  0  0
   43.0490    0.2350   -9.4640   N 0  0  0  0  0  0  0  0  0  0  0  0
   42.1270    2.7610  -12.6830   C 0  0  0  0  0  0  0  0  0  0  0  0
   41.9270    1.3880  -12.8040   C 0  0  0  0  0  0  0  0  0  0  0  0
   45.3380    0.2720   -9.5480   O 0  0  0  0  0  0  0  0  0  0  0  0
   43.4780    2.9390   -9.2820   F 0  0  0  0  0  0  0  0  0  0  0  0
 16  5  1  0  0  0  0
 16 15  1  0  0  0  0
 20  5  2  0  0  0  0
  5 17  1  0  0  0  0
 15  4  2  0  0  0  0
 21  7  1  0  0  0  0
 17  4  1  0  0  0  0
 17  6  1  0  0  0  0
  4 10  1  0  0  0  0
  7  6  2  0  0  0  0
  7  8  1  0  0  0  0
  6  9  1  0  0  0  0
 10 11  2  0  0  0  0
 10  3  1  0  0  0  0
  8 18  2  0  0  0  0
 14  3  1  0  0  0  0
 11 12  1  0  0  0  0
  3  2  2  0  0  0  0
  9 19  2  0  0  0  0
 18 19  1  0  0  0  0
 12  1  2  0  0  0  0
  2  1  1  0  0  0  0
  1 13  1  0  0  0  0
M  END
>  <InstanceId>
5J8U_6DL_A_301

>  <ChemCompId>
6DL

>  <PdbId>
5J8U

>  <ChainId>
A

>  <ResidueNumber>
301

>  <InsertionCode>


>  <Model>
1

>  <AltIds>


>  <MissingHeavyAtoms>
22

>  <ObservedFormula>
C14 N3 O3 F

>  <Name>
5-(5-Bromo-2,4-dihydroxy-phenyl)-4-(2-fluoro-phenyl)-2,4-dihydro-[1,2,4]triazol-3-one

>  <SystematicName>
3-[5-bromanyl-2,4-bis(oxidanyl)phenyl]-4-(2-fluorophenyl)-1~{H}-1,2,4-triazol-5-one

>  <Synonyms>


>  <Type>
NON-POLYMER

>  <Formula>
C14 H9 Br F N3 O3

>  <MolecularWeight>
366.142

>  <ModifiedDate>
2017-12-01

>  <Parent>


>  <OneLetterCode>


>  <SubcomponentList>


>  <AmbiguousFlag>
N

>  <InChI>
InChI=1S/C14H9BrFN3O3/c15-8-5-7(11(20)6-12(8)21)13-17-18-14(22)19(13)10-4-2-1-3-9(10)16/h1-6,20-21H,(H,18,22)

>  <InChIKey>
WTHWBOWCSOCLLT-UHFFFAOYSA-N

>  <SMILES>
c1ccc(c(c1)N2C(=NNC2=O)c3cc(c(cc3O)O)Br)F

$$$$
