5Y8Y_8PX_A_206
  RCSB PDB08022003433D
Coordinates from PDB:5Y8Y:A:206 Model:1 without hydrogens
 25 27  0  0  0  0            999 V2000
   13.9700    9.5860    3.7280   C 0  0  0  0  0  0  0  0  0  0  0  0
   12.7270    9.4630    3.0000   O 0  0  0  0  0  0  0  0  0  0  0  0
   12.6130    8.4940    2.0130   C 0  0  0  0  0  0  0  0  0  0  0  0
   13.6200    7.5910    1.6480   C 0  0  0  0  0  0  0  0  0  0  0  0
   13.4470    6.6990    0.6790   C 0  0  0  0  0  0  0  0  0  0  0  0
   14.3050    5.7830    0.2190   O 0  0  0  0  0  0  0  0  0  0  0  0
   13.5580    5.0610   -0.8220   N 0  0  0  0  0  0  0  0  0  0  0  0
   12.3740    5.6370   -0.8820   C 0  0  0  0  0  0  0  0  0  0  0  0
   11.3720    5.1580   -1.8670   C 0  0  0  0  0  0  0  0  0  0  0  0
   12.2610    6.6220    0.0020   C 0  0  0  0  0  0  0  0  0  0  0  0
   11.2550    7.4590    0.3330   C 0  0  0  0  0  0  0  0  0  0  0  0
   11.4000    8.4250    1.3390   C 0  0  0  0  0  0  0  0  0  0  0  0
   10.4630    9.3780    1.6680   N 0  0  0  0  0  0  0  0  0  0  0  0
    8.9100    9.0120    2.1760   S 0  0  0  0  0  0  0  0  0  0  0  0
    8.2410    8.0550    1.2470   O 0  0  0  0  0  0  0  0  0  0  0  0
    8.1680   10.3230    2.4830   O 0  0  0  0  0  0  0  0  0  0  0  0
    9.2070    8.2580    3.7840   C 0  0  0  0  0  0  0  0  0  0  0  0
    8.8370    6.9290    3.9310   C 0  0  0  0  0  0  0  0  0  0  0  0
    9.0140    6.2600    5.1240   C 0  0  0  0  0  0  0  0  0  0  0  0
    8.4440    4.4780    5.1360  Br 0  0  0  0  0  0  0  0  0  0  0  0
    9.6180    6.9080    6.1770   C 0  0  0  0  0  0  0  0  0  0  0  0
   10.0170    8.2410    6.0590   C 0  0  0  0  0  0  0  0  0  0  0  0
    9.8220    8.9390    4.8610   C 0  0  0  0  0  0  0  0  0  0  0  0
   10.1840   10.2920    4.6640   O 0  0  0  0  0  0  0  0  0  0  0  0
   10.6280   11.0670    5.7160   C 0  0  0  0  0  0  0  0  0  0  0  0
  9  8  1  0  0  0  0
  8  7  2  0  0  0  0
  8 10  1  0  0  0  0
  7  6  1  0  0  0  0
 10 11  2  0  0  0  0
 10  5  1  0  0  0  0
  6  5  1  0  0  0  0
 11 12  1  0  0  0  0
  5  4  2  0  0  0  0
 15 14  2  0  0  0  0
 12 13  1  0  0  0  0
 12  3  2  0  0  0  0
  4  3  1  0  0  0  0
 13 14  1  0  0  0  0
  3  2  1  0  0  0  0
 14 16  2  0  0  0  0
 14 17  1  0  0  0  0
  2  1  1  0  0  0  0
 17 18  1  0  0  0  0
 17 23  2  0  0  0  0
 18 19  2  0  0  0  0
 24 23  1  0  0  0  0
 24 25  1  0  0  0  0
 23 22  1  0  0  0  0
 19 20  1  0  0  0  0
 19 21  1  0  0  0  0
 22 21  2  0  0  0  0
M  END
>  <InstanceId>
5Y8Y_8PX_A_206

>  <ChemCompId>
8PX

>  <PdbId>
5Y8Y

>  <ChainId>
A

>  <ResidueNumber>
206

>  <InsertionCode>


>  <Model>
1

>  <AltIds>


>  <MissingHeavyAtoms>
0

>  <ObservedFormula>
C16 N2 O5 Br S

>  <Name>
5-bromanyl-2-methoxy-N-(6-methoxy-3-methyl-1,2-benzoxazol-5-yl)benzenesulfonamide

>  <SystematicName>
5-bromanyl-2-methoxy-~{N}-(6-methoxy-3-methyl-1,2-benzoxazol-5-yl)benzenesulfonamide

>  <Synonyms>


>  <Type>
NON-POLYMER

>  <Formula>
C16 H15 Br N2 O5 S

>  <MolecularWeight>
427.27

>  <ModifiedDate>
2018-06-08

>  <Parent>


>  <OneLetterCode>


>  <SubcomponentList>


>  <AmbiguousFlag>
N

>  <InChI>
InChI=1S/C16H15BrN2O5S/c1-9-11-7-12(15(23-3)8-14(11)24-18-9)19-25(20,21)16-6-10(17)4-5-13(16)22-2/h4-8,19H,1-3H3

>  <InChIKey>
KVGNGFGTOSOVPB-UHFFFAOYSA-N

>  <SMILES>
Cc1c2cc(c(cc2on1)OC)NS(=O)(=O)c3cc(ccc3OC)Br

$$$$
