1SH9_RIT_B_301
  RCSB PDB08012015563D
Coordinates from PDB:1SH9:B:301 Model:1 without hydrogens
 50 53  0  0  0  0            999 V2000
   18.2570    1.2190    4.1580   C 0  0  0  0  0  0  0  0  0  0  0  0
   17.9210    0.0750    4.8210   C 0  0  0  0  0  0  0  0  0  0  0  0
   18.3630   -1.4460    4.0140   S 0  0  0  0  0  0  0  0  0  0  0  0
   18.9550   -0.2360    2.8580   C 0  0  0  0  0  0  0  0  0  0  0  0
   18.8460    1.0310    3.0390   N 0  0  0  0  0  0  0  0  0  0  0  0
   17.2920   -0.3140    6.0350   C 0  0  0  0  0  0  0  0  0  0  0  0
   18.2950   -0.4790    7.0100   O 0  0  0  0  0  0  0  0  0  0  0  0
   18.0880   -0.8560    8.3310   C 0  0  0  0  0  0  0  0  0  0  0  0
   16.9680   -1.0950    8.8030   O 0  0  0  0  0  0  0  0  0  0  0  0
   19.2710   -0.9190    9.0030   N 0  0  0  0  0  0  0  0  0  0  0  0
   19.4160   -1.2800   10.4260   C 0  0  0  0  0  0  0  0  0  0  0  0
   20.4630   -0.4350   11.1760   C 0  0  0  0  0  0  0  0  0  0  0  0
   20.3250    1.0600   10.9840   C 0  0  0  0  0  0  0  0  0  0  0  0
   19.2010    1.8860   11.6650   C 0  0  0  0  0  0  0  0  0  0  0  0
   19.6720   -2.7920   10.6670   C 0  0  0  0  0  0  0  0  0  0  0  0
   18.8190   -3.7910   10.0590   C 0  0  0  0  0  0  0  0  0  0  0  0
   17.6770   -4.0080   10.8810   C 0  0  0  0  0  0  0  0  0  0  0  0
   16.7050   -4.9600   10.4460   C 0  0  0  0  0  0  0  0  0  0  0  0
   16.8540   -5.6850    9.2210   C 0  0  0  0  0  0  0  0  0  0  0  0
   18.0130   -5.4500    8.4090   C 0  0  0  0  0  0  0  0  0  0  0  0
   18.9930   -4.5070    8.8240   C 0  0  0  0  0  0  0  0  0  0  0  0
   21.7150   -0.8450   10.6700   O 0  0  0  0  0  0  0  0  0  0  0  0
   19.4830    3.3160   11.2530   C 0  0  0  0  0  0  0  0  0  0  0  0
   18.3510    4.1520   11.6230   C 0  0  0  0  0  0  0  0  0  0  0  0
   18.4870    4.9440   12.8060   C 0  0  0  0  0  0  0  0  0  0  0  0
   17.4180    5.7880   13.2400   C 0  0  0  0  0  0  0  0  0  0  0  0
   16.2260    5.8270   12.4760   C 0  0  0  0  0  0  0  0  0  0  0  0
   16.0910    5.0470   11.3040   C 0  0  0  0  0  0  0  0  0  0  0  0
   17.1480    4.2060   10.8690   C 0  0  0  0  0  0  0  0  0  0  0  0
   19.2200    1.8050   13.1270   N 0  0  0  0  0  0  0  0  0  0  0  0
   17.9340    2.6100   16.0060   N 0  0  0  0  0  0  0  0  0  0  0  0
   18.5260    1.3950   15.4100   C 0  0  0  0  0  0  0  0  0  0  0  0
   18.2180    1.3320   13.9010   C 0  0  0  0  0  0  0  0  0  0  0  0
   17.1400    0.8990   13.4410   O 0  0  0  0  0  0  0  0  0  0  0  0
   18.0280    0.1600   16.2530   C 0  0  0  0  0  0  0  0  0  0  0  0
   18.5350   -1.2280   15.7770   C 0  0  0  0  0  0  0  0  0  0  0  0
   18.3840    0.3410   17.7520   C 0  0  0  0  0  0  0  0  0  0  0  0
   18.7010    3.6750   16.3870   C 0  0  0  0  0  0  0  0  0  0  0  0
   17.9780    4.7650   16.8350   N 0  0  0  0  0  0  0  0  0  0  0  0
   18.6690    5.9940   17.2860   C 0  0  0  0  0  0  0  0  0  0  0  0
   19.9570    3.6270   16.3240   O 0  0  0  0  0  0  0  0  0  0  0  0
   18.9780    7.0320   16.2820   C 0  0  0  0  0  0  0  0  0  0  0  0
   20.2130    6.9940   15.6970   C 0  0  0  0  0  0  0  0  0  0  0  0
   20.2580    8.3590   14.5530   S 0  0  0  0  0  0  0  0  0  0  0  0
   18.6060    8.7920   15.0210   C 0  0  0  0  0  0  0  0  0  0  0  0
   18.1430    7.9690   15.9280   N 0  0  0  0  0  0  0  0  0  0  0  0
   18.2280    9.9160   14.2790   C 0  0  0  0  0  0  0  0  0  0  0  0
   18.9240   11.2650   14.1040   C 0  0  0  0  0  0  0  0  0  0  0  0
   16.8490   10.2900   14.6530   C 0  0  0  0  0  0  0  0  0  0  0  0
   16.6530    4.9080   16.9410   C 0  0  0  0  0  0  0  0  0  0  0  0
  1  2  2  0  0  0  0
  1  5  1  0  0  0  0
  2  3  1  0  0  0  0
  2  6  1  0  0  0  0
  3  4  1  0  0  0  0
  4  5  2  0  0  0  0
  6  7  1  0  0  0  0
  7  8  1  0  0  0  0
  8 10  1  0  0  0  0
  8  9  2  0  0  0  0
 10 11  1  0  0  0  0
 11 12  1  0  0  0  0
 11 15  1  0  0  0  0
 12 13  1  0  0  0  0
 12 22  1  0  0  0  0
 13 14  1  0  0  0  0
 14 23  1  0  0  0  0
 14 30  1  0  0  0  0
 33 32  1  0  0  0  0
 33 30  1  0  0  0  0
 33 34  2  0  0  0  0
 32 31  1  0  0  0  0
 32 35  1  0  0  0  0
 31 38  1  0  0  0  0
 38 39  1  0  0  0  0
 38 41  2  0  0  0  0
 15 16  1  0  0  0  0
 16 17  2  0  0  0  0
 16 21  1  0  0  0  0
 17 18  1  0  0  0  0
 18 19  2  0  0  0  0
 19 20  1  0  0  0  0
 20 21  2  0  0  0  0
 23 24  1  0  0  0  0
 24 25  2  0  0  0  0
 24 29  1  0  0  0  0
 25 26  1  0  0  0  0
 26 27  2  0  0  0  0
 27 28  1  0  0  0  0
 28 29  2  0  0  0  0
 35 36  1  0  0  0  0
 35 37  1  0  0  0  0
 39 40  1  0  0  0  0
 39 50  1  0  0  0  0
 40 42  1  0  0  0  0
 42 43  2  0  0  0  0
 42 46  1  0  0  0  0
 43 44  1  0  0  0  0
 44 45  1  0  0  0  0
 45 46  2  0  0  0  0
 45 47  1  0  0  0  0
 47 48  1  0  0  0  0
 47 49  1  0  0  0  0
M  END
>  <InstanceId>
1SH9_RIT_B_301

>  <ChemCompId>
RIT

>  <PdbId>
1SH9

>  <ChainId>
B

>  <ResidueNumber>
301

>  <InsertionCode>


>  <Model>
1

>  <AltIds>


>  <MissingHeavyAtoms>
0

>  <ObservedFormula>
C37 N6 O5 S2

>  <Name>
RITONAVIR

>  <SystematicName>
1,3-thiazol-5-ylmethyl N-[(2S,3S,5S)-3-hydroxy-5-[[(2S)-3-methyl-2-[[methyl-[(2-propan-2-yl-1,3-thiazol-4-yl)methyl]carbamoyl]amino]butanoyl]amino]-1,6-diphenyl-hexan-2-yl]carbamate

>  <Synonyms>
A-84538

>  <Type>
peptide-like

>  <Formula>
C37 H48 N6 O5 S2

>  <MolecularWeight>
720.944

>  <ModifiedDate>
2011-06-04

>  <Parent>


>  <OneLetterCode>


>  <SubcomponentList>
013 015 VAL 019

>  <AmbiguousFlag>
N

>  <InChI>
InChI=1S/C37H48N6O5S2/c1-24(2)33(42-36(46)43(5)20-29-22-49-35(40-29)25(3)4)34(45)39-28(16-26-12-8-6-9-13-26)18-32(44)31(17-27-14-10-7-11-15-27)41-37(47)48-21-30-19-38-23-50-30/h6-15,19,22-25,28,31-33,44H,16-18,20-21H2,1-5H3,(H,39,45)(H,41,47)(H,42,46)/t28-,31-,32-,33-/m0/s1

>  <InChIKey>
NCDNCNXCDXHOMX-XGKFQTDJSA-N

>  <SMILES>
CC(C)c1nc(cs1)CN(C)C(=O)N[C@@H](C(C)C)C(=O)N[C@@H](Cc2ccccc2)C[C@@H]([C@H](Cc3ccccc3)NC(=O)OCc4cncs4)O

$$$$
