4Q09_V14_A_302
  RCSB PDB08012022563D
Coordinates from PDB:4Q09:A:302 Model:1 without hydrogens
 28 29  0  0  0  0            999 V2000
   -5.5950    3.6610   15.6080   F 0  0  0  0  0  0  0  0  0  0  0  0
   -4.8780    2.9420   14.6970   C 0  0  0  0  0  0  0  0  0  0  0  0
   -4.6050    1.5950   14.9360   C 0  0  0  0  0  0  0  0  0  0  0  0
   -5.2610    0.8870   16.4700   S 0  0  0  0  0  0  0  0  0  0  0  0
   -6.6540    1.2510   16.4520   O 0  0  0  0  0  0  0  0  0  0  0  0
   -5.0880   -0.5990   16.3240   N 0  0  0  0  0  0  0  0  0  0  0  0
   -4.4350    1.3910   17.5120   O 0  0  0  0  0  0  0  0  0  0  0  0
   -3.9380    0.9230   13.9820   C 0  0  0  0  0  0  0  0  0  0  0  0
   -3.6440   -0.4120   14.0560   F 0  0  0  0  0  0  0  0  0  0  0  0
   -3.5470    1.4570   12.7990   C 0  0  0  0  0  0  0  0  0  0  0  0
   -2.8640    0.7590   11.8990   F 0  0  0  0  0  0  0  0  0  0  0  0
   -4.4830    3.5930   13.5080   C 0  0  0  0  0  0  0  0  0  0  0  0
   -3.7770    2.8250   12.5840   C 0  0  0  0  0  0  0  0  0  0  0  0
   -3.0160    3.4890   11.0860   S 0  0  0  0  0  0  0  0  0  0  0  0
   -3.5650    4.8100   10.8680   O 0  0  0  0  0  0  0  0  0  0  0  0
   -3.2120    2.5820    9.9710   O 0  0  0  0  0  0  0  0  0  0  0  0
   -1.2000    3.4640   11.0980   C 0  0  0  0  0  0  0  0  0  0  0  0
   -0.5320    4.3140   12.1590   C 0  0  0  0  0  0  0  0  0  0  0  0
   -0.5710    3.8170   13.4940   O 0  0  0  0  0  0  0  0  0  0  0  0
   -4.8260    4.9440   13.2740   N 0  0  0  0  0  0  0  0  0  0  0  0
   -4.9520    6.0640   14.2220   C 0  0  0  0  0  0  0  0  0  0  0  0
   -3.5670    6.2710   14.7510   C 0  0  0  0  0  0  0  0  0  0  0  0
   -2.6290    7.0580   13.8730   C 0  0  0  0  0  0  0  0  0  0  0  0
   -2.5590    8.5620   14.3740   C 0  0  0  0  0  0  0  0  0  0  0  0
   -3.7840    9.5410   14.1200   C 0  0  0  0  0  0  0  0  0  0  0  0
   -5.0260    9.2480   14.9970   C 0  0  0  0  0  0  0  0  0  0  0  0
   -6.1610    8.3680   14.3840   C 0  0  0  0  0  0  0  0  0  0  0  0
   -5.6780    7.2300   13.5470   C 0  0  0  0  0  0  0  0  0  0  0  0
 18 19  1  0  0  0  0
 18 17  1  0  0  0  0
 17 14  1  0  0  0  0
 16 14  2  0  0  0  0
 28 27  1  0  0  0  0
 28 21  1  0  0  0  0
 27 26  1  0  0  0  0
 20 21  1  0  0  0  0
 20 12  1  0  0  0  0
 26 25  1  0  0  0  0
 14 13  1  0  0  0  0
 14 15  2  0  0  0  0
 21 22  1  0  0  0  0
 12 13  2  0  0  0  0
 12  2  1  0  0  0  0
 13 10  1  0  0  0  0
  1  2  1  0  0  0  0
 25 24  1  0  0  0  0
  2  3  2  0  0  0  0
 24 23  1  0  0  0  0
 22 23  1  0  0  0  0
 10 11  1  0  0  0  0
 10  8  2  0  0  0  0
  3  8  1  0  0  0  0
  3  4  1  0  0  0  0
  8  9  1  0  0  0  0
  6  4  1  0  0  0  0
  4  5  2  0  0  0  0
  4  7  2  0  0  0  0
M  END
>  <InstanceId>
4Q09_V14_A_302

>  <ChemCompId>
V14

>  <PdbId>
4Q09

>  <ChainId>
A

>  <ResidueNumber>
302

>  <InsertionCode>


>  <Model>
1

>  <AltIds>


>  <MissingHeavyAtoms>
0

>  <ObservedFormula>
C16 N2 O5 S2 F3

>  <Name>
3-(cyclooctylamino)-2,5,6-trifluoro-4-[(2-hydroxyethyl)sulfonyl]benzenesulfonamide

>  <SystematicName>
3-(cyclooctylamino)-2,5,6-tris(fluoranyl)-4-(2-hydroxyethylsulfonyl)benzenesulfonamide

>  <Synonyms>


>  <Type>
NON-POLYMER

>  <Formula>
C16 H23 F3 N2 O5 S2

>  <MolecularWeight>
444.489

>  <ModifiedDate>
2015-01-23

>  <Parent>


>  <OneLetterCode>


>  <SubcomponentList>


>  <AmbiguousFlag>
N

>  <InChI>
InChI=1S/C16H23F3N2O5S2/c17-11-12(18)16(27(23,24)9-8-22)14(13(19)15(11)28(20,25)26)21-10-6-4-2-1-3-5-7-10/h10,21-22H,1-9H2,(H2,20,25,26)

>  <InChIKey>
HFJJAVOBUVMVFQ-UHFFFAOYSA-N

>  <SMILES>
C1CCCC(CCC1)Nc2c(c(c(c(c2S(=O)(=O)CCO)F)F)S(=O)(=O)N)F

$$$$
