3PWM_017_B_402
  RCSB PDB08012020113D
Coordinates from PDB:3PWM:B:402 Model:1 without hydrogens
 38 41  0  0  0  0            999 V2000
    7.2120   14.4990   14.5710   N 0  0  0  0  0  0  0  0  0  0  0  0
    8.0170   15.5300   14.8510   C 0  0  0  0  0  0  0  0  0  0  0  0
    9.3760   15.5090   14.5770   C 0  0  0  0  0  0  0  0  0  0  0  0
   10.1760   16.6190   14.8830   C 0  0  0  0  0  0  0  0  0  0  0  0
    9.6200   17.6670   15.6050   C 0  0  0  0  0  0  0  0  0  0  0  0
    8.2700   17.6550   15.9090   C 0  0  0  0  0  0  0  0  0  0  0  0
    7.4580   16.6020   15.5490   C 0  0  0  0  0  0  0  0  0  0  0  0
   10.5730   19.0600   16.1150   S 0  0  0  0  0  0  0  0  0  0  0  0
   11.6640   19.2760   15.1330   O 0  0  0  0  0  0  0  0  0  0  0  0
    9.6740   20.2340   16.2800   O 0  0  0  0  0  0  0  0  0  0  0  0
   11.2780   18.7540   17.5620   N 0  0  0  0  0  0  0  0  0  0  0  0
   10.4050   18.4100   18.6550   C 0  0  0  0  0  0  0  0  0  0  0  0
   10.7140   19.0590   20.0220   C 0  0  0  0  0  0  0  0  0  0  0  0
   10.7190   20.5820   19.9290   C 0  0  0  0  0  0  0  0  0  0  0  0
    9.6060   18.6240   21.0130   C 0  0  0  0  0  0  0  0  0  0  0  0
   12.5300   18.0240   17.4860   C 0  0  0  0  0  0  0  0  0  0  0  0
   13.6530   18.8770   18.0620   C 0  0  0  0  0  0  0  0  0  0  0  0
   14.7870   18.1030   18.4090   O 0  0  0  0  0  0  0  0  0  0  0  0
   14.0430   20.0180   17.1240   C 0  0  0  0  0  0  0  0  0  0  0  0
   14.8930   20.9470   17.8660   N 0  0  0  0  0  0  0  0  0  0  0  0
   14.6400   22.2020   18.2380   C 0  0  0  0  0  0  0  0  0  0  0  0
   13.5660   22.7580   17.9910   O 0  0  0  0  0  0  0  0  0  0  0  0
   15.6630   22.7980   18.8910   O 0  0  0  0  0  0  0  0  0  0  0  0
   15.5010   24.2120   19.1040   C 0  0  0  0  0  0  0  0  0  0  0  0
   16.0760   24.5420   20.4880   C 0  0  0  0  0  0  0  0  0  0  0  0
   17.4870   24.4300   20.2780   O 0  0  0  0  0  0  0  0  0  0  0  0
   17.7700   24.9680   18.9950   C 0  0  0  0  0  0  0  0  0  0  0  0
   18.7220   24.1400   18.3060   O 0  0  0  0  0  0  0  0  0  0  0  0
   18.0430   23.3900   17.3460   C 0  0  0  0  0  0  0  0  0  0  0  0
   16.8730   24.2860   16.8940   C 0  0  0  0  0  0  0  0  0  0  0  0
   16.4750   24.9400   18.1950   C 0  0  0  0  0  0  0  0  0  0  0  0
   14.7850   19.5270   15.8920   C 0  0  0  0  0  0  0  0  0  0  0  0
   16.4810   21.0740   14.8380   C 0  0  0  0  0  0  0  0  0  0  0  0
   16.8230   22.1650   14.0440   C 0  0  0  0  0  0  0  0  0  0  0  0
   15.8470   22.9050   13.3890   C 0  0  0  0  0  0  0  0  0  0  0  0
   14.5290   22.4740   13.4980   C 0  0  0  0  0  0  0  0  0  0  0  0
   14.1770   21.3880   14.2850   C 0  0  0  0  0  0  0  0  0  0  0  0
   15.1580   20.6880   14.9690   C 0  0  0  0  0  0  0  0  0  0  0  0
  1  2  1  0  0  0  0
  2  3  2  0  0  0  0
  2  7  1  0  0  0  0
  3  4  1  0  0  0  0
  4  5  2  0  0  0  0
  5  6  1  0  0  0  0
  5  8  1  0  0  0  0
  6  7  2  0  0  0  0
  8  9  2  0  0  0  0
  8 10  2  0  0  0  0
  8 11  1  0  0  0  0
 11 12  1  0  0  0  0
 11 16  1  0  0  0  0
 12 13  1  0  0  0  0
 13 14  1  0  0  0  0
 13 15  1  0  0  0  0
 16 17  1  0  0  0  0
 17 18  1  0  0  0  0
 17 19  1  0  0  0  0
 19 20  1  0  0  0  0
 19 32  1  0  0  0  0
 20 21  1  0  0  0  0
 21 22  2  0  0  0  0
 21 23  1  0  0  0  0
 23 24  1  0  0  0  0
 24 25  1  0  0  0  0
 24 31  1  0  0  0  0
 25 26  1  0  0  0  0
 26 27  1  0  0  0  0
 27 28  1  0  0  0  0
 27 31  1  0  0  0  0
 28 29  1  0  0  0  0
 29 30  1  0  0  0  0
 30 31  1  0  0  0  0
 32 38  1  0  0  0  0
 33 34  2  0  0  0  0
 33 38  1  0  0  0  0
 34 35  1  0  0  0  0
 35 36  2  0  0  0  0
 36 37  1  0  0  0  0
 37 38  2  0  0  0  0
M  END
>  <InstanceId>
3PWM_017_B_402

>  <ChemCompId>
017

>  <PdbId>
3PWM

>  <ChainId>
B

>  <ResidueNumber>
402

>  <InsertionCode>


>  <Model>
1

>  <AltIds>


>  <MissingHeavyAtoms>
0

>  <ObservedFormula>
C27 N3 O7 S

>  <Name>
(3R,3AS,6AR)-HEXAHYDROFURO[2,3-B]FURAN-3-YL(1S,2R)-3-[[(4-AMINOPHENYL)SULFONYL](ISOBUTYL)AMINO]-1-BENZYL-2-HYDROXYPROPYLCARBAMATE

>  <SystematicName>
[(3R,3aS,6aR)-2,3,3a,4,5,6a-hexahydrofuro[2,3-b]furan-3-yl] N-[(2S,3R)-4-[(4-aminophenyl)sulfonyl-(2-methylpropyl)amino]-3-hydroxy-1-phenyl-butan-2-yl]carbamate

>  <Synonyms>
Darunavir; TMC114; UIC-94017

>  <Type>
NON-POLYMER

>  <Formula>
C27 H37 N3 O7 S

>  <MolecularWeight>
547.664

>  <ModifiedDate>
2020-05-22

>  <Parent>


>  <OneLetterCode>


>  <SubcomponentList>


>  <AmbiguousFlag>
N

>  <InChI>
InChI=1S/C27H37N3O7S/c1-18(2)15-30(38(33,34)21-10-8-20(28)9-11-21)16-24(31)23(14-19-6-4-3-5-7-19)29-27(32)37-25-17-36-26-22(25)12-13-35-26/h3-11,18,22-26,31H,12-17,28H2,1-2H3,(H,29,32)/t22-,23-,24+,25-,26+/m0/s1

>  <InChIKey>
CJBJHOAVZSMMDJ-HEXNFIEUSA-N

>  <SMILES>
CC(C)C[N@@](C[C@H]([C@H](Cc1ccccc1)NC(=O)O[C@H]2CO[C@@H]3[C@H]2CCO3)O)S(=O)(=O)c4ccc(cc4)N

$$$$
