3EBH_BES_A_1085
  RCSB PDB08012018553D
Coordinates from PDB:3EBH:A:1085 Model:1 without hydrogens
 22 22  0  0  0  0            999 V2000
   11.3060   12.6890   12.1390   N 0  0  0  0  0  0  0  0  0  0  0  0
   12.5960   12.0440   12.3500   C 0  0  0  0  0  0  0  0  0  0  0  0
   13.2840   12.6490   13.5710   C 0  0  0  0  0  0  0  0  0  0  0  0
   12.9890   11.9410   14.8790   C 0  0  0  0  0  0  0  0  0  0  0  0
   12.2340   12.6020   15.8500   C 0  0  0  0  0  0  0  0  0  0  0  0
   13.4890   10.6600   15.1410   C 0  0  0  0  0  0  0  0  0  0  0  0
   11.9640   11.9770   17.0700   C 0  0  0  0  0  0  0  0  0  0  0  0
   13.2190   10.0330   16.3650   C 0  0  0  0  0  0  0  0  0  0  0  0
   12.4510   10.6950   17.3250   C 0  0  0  0  0  0  0  0  0  0  0  0
   13.5130   12.1940   11.1330   C 0  0  0  0  0  0  0  0  0  0  0  0
   12.8050   12.5270    9.9360   O 0  0  0  0  0  0  0  0  0  0  0  0
   14.1970   10.8890   10.8790   C 0  0  0  0  0  0  0  0  0  0  0  0
   13.5530    9.9260   10.4990   O 0  0  0  0  0  0  0  0  0  0  0  0
   15.5040   10.8900   11.0810   N 0  0  0  0  0  0  0  0  0  0  0  0
   16.3580    9.7220   10.9190   C 0  0  0  0  0  0  0  0  0  0  0  0
   17.1280    9.9220    9.6130   C 0  0  0  0  0  0  0  0  0  0  0  0
   17.1910    8.6810    8.7150   C 0  0  0  0  0  0  0  0  0  0  0  0
   15.9300    7.8190    8.7240   C 0  0  0  0  0  0  0  0  0  0  0  0
   17.5190    9.0630    7.2790   C 0  0  0  0  0  0  0  0  0  0  0  0
   17.2760    9.7200   12.1000   C 0  0  0  0  0  0  0  0  0  0  0  0
   17.8430    8.6680   12.4740   O 0  0  0  0  0  0  0  0  0  0  0  0
   17.4090   10.8100   12.6840   O 0  0  0  0  0  0  0  0  0  0  0  0
  1  2  1  0  0  0  0
  2  3  1  0  0  0  0
  2 10  1  0  0  0  0
  3  4  1  0  0  0  0
  4  5  2  0  0  0  0
  4  6  1  0  0  0  0
  5  7  1  0  0  0  0
  6  8  2  0  0  0  0
  7  9  2  0  0  0  0
  8  9  1  0  0  0  0
 10 11  1  0  0  0  0
 10 12  1  0  0  0  0
 12 13  2  0  0  0  0
 12 14  1  0  0  0  0
 14 15  1  0  0  0  0
 15 16  1  0  0  0  0
 15 20  1  0  0  0  0
 16 17  1  0  0  0  0
 17 18  1  0  0  0  0
 17 19  1  0  0  0  0
 20 21  1  0  0  0  0
 20 22  2  0  0  0  0
M  END
>  <InstanceId>
3EBH_BES_A_1085

>  <ChemCompId>
BES

>  <PdbId>
3EBH

>  <ChainId>
A

>  <ResidueNumber>
1085

>  <InsertionCode>


>  <Model>
1

>  <AltIds>


>  <MissingHeavyAtoms>
0

>  <ObservedFormula>
C16 N2 O4

>  <Name>
2-(3-AMINO-2-HYDROXY-4-PHENYL-BUTYRYLAMINO)-4-METHYL-PENTANOIC ACID

>  <SystematicName>
(2S)-2-[[(2S,3R)-3-amino-2-hydroxy-4-phenyl-butanoyl]amino]-4-methyl-pentanoic acid

>  <Synonyms>
BESTATIN

>  <Type>
NON-POLYMER

>  <Formula>
C16 H24 N2 O4

>  <MolecularWeight>
308.373

>  <ModifiedDate>
2020-06-17

>  <Parent>


>  <OneLetterCode>


>  <SubcomponentList>


>  <AmbiguousFlag>
N

>  <InChI>
InChI=1S/C16H24N2O4/c1-10(2)8-13(16(21)22)18-15(20)14(19)12(17)9-11-6-4-3-5-7-11/h3-7,10,12-14,19H,8-9,17H2,1-2H3,(H,18,20)(H,21,22)/t12-,13+,14+/m1/s1

>  <InChIKey>
VGGGPCQERPFHOB-RDBSUJKOSA-N

>  <SMILES>
CC(C)C[C@@H](C(=O)O)NC(=O)[C@H]([C@@H](Cc1ccccc1)N)O

$$$$
