5TXY_7Q1_A_303
  RCSB PDB08022003083D
Coordinates from PDB:5TXY:A:303 Model:1 without hydrogens
 13 14  0  0  0  0            999 V2000
   16.4810    5.8350   13.9510   C 0  0  0  0  0  0  0  0  0  0  0  0
   17.7050    5.2250   13.9140   C 0  0  0  0  0  0  0  0  0  0  0  0
   17.9370    4.0130   14.5480   C 0  0  0  0  0  0  0  0  0  0  0  0
   16.8930    3.3420   15.1950   C 0  0  0  0  0  0  0  0  0  0  0  0
   15.6230    3.9330   15.2090   C 0  0  0  0  0  0  0  0  0  0  0  0
   15.4520    5.1570   14.5510   C 0  0  0  0  0  0  0  0  0  0  0  0
   17.1580    1.9940   15.8320   C 0  0  0  0  0  0  0  0  0  0  0  0
   16.4790    0.9360   15.0430   C 0  0  0  0  0  0  0  0  0  0  0  0
   16.7370    0.6260   13.8800   O 0  0  0  0  0  0  0  0  0  0  0  0
   15.5190    0.2690   15.8000   N 0  0  0  0  0  0  0  0  0  0  0  0
   15.5440    0.9310   17.0390   C 0  0  0  0  0  0  0  0  0  0  0  0
   14.8730    0.6490   18.0190   O 0  0  0  0  0  0  0  0  0  0  0  0
   16.5620    1.9060   17.1120   O 0  0  0  0  0  0  0  0  0  0  0  0
  9  8  2  0  0  0  0
  2  1  2  0  0  0  0
  2  3  1  0  0  0  0
  1  6  1  0  0  0  0
  3  4  2  0  0  0  0
  6  5  2  0  0  0  0
  8 10  1  0  0  0  0
  8  7  1  0  0  0  0
  4  5  1  0  0  0  0
  4  7  1  0  0  0  0
 10 11  1  0  0  0  0
  7 13  1  0  0  0  0
 11 13  1  0  0  0  0
 11 12  2  0  0  0  0
M  END
>  <InstanceId>
5TXY_7Q1_A_303

>  <ChemCompId>
7Q1

>  <PdbId>
5TXY

>  <ChainId>
A

>  <ResidueNumber>
303

>  <InsertionCode>


>  <Model>
1

>  <AltIds>


>  <MissingHeavyAtoms>
0

>  <ObservedFormula>
C9 N O3

>  <Name>
(5R)-5-phenyl-1,3-oxazolidine-2,4-dione

>  <SystematicName>
(5~{R})-5-phenyl-1,3-oxazolidine-2,4-dione

>  <Synonyms>


>  <Type>
NON-POLYMER

>  <Formula>
C9 H7 N O3

>  <MolecularWeight>
177.157

>  <ModifiedDate>
2017-08-25

>  <Parent>


>  <OneLetterCode>


>  <SubcomponentList>


>  <AmbiguousFlag>
N

>  <InChI>
InChI=1S/C9H7NO3/c11-8-7(13-9(12)10-8)6-4-2-1-3-5-6/h1-5,7H,(H,10,11,12)/t7-/m1/s1

>  <InChIKey>
SBYYYVAMWBVIIX-SSDOTTSWSA-N

>  <SMILES>
c1ccc(cc1)[C@@H]2C(=O)NC(=O)O2

$$$$
