1H4W_BEN_A_250
  RCSB PDB08012015023D
Coordinates from PDB:1H4W:A:250 Model:1 without hydrogens
  9  9  0  0  0  0            999 V2000
   50.3420   36.7890   39.3750   C 0  0  0  0  0  0  0  0  0  0  0  0
   50.3710   35.9320   40.4660   C 0  0  0  0  0  0  0  0  0  0  0  0
   49.8970   34.5860   40.2460   C 0  0  0  0  0  0  0  0  0  0  0  0
   49.3980   34.0600   38.9960   C 0  0  0  0  0  0  0  0  0  0  0  0
   49.3930   35.0100   37.8910   C 0  0  0  0  0  0  0  0  0  0  0  0
   49.8710   36.3660   38.1130   C 0  0  0  0  0  0  0  0  0  0  0  0
   50.7960   38.1370   39.5110   C 0  0  0  0  0  0  0  0  0  0  0  0
   50.9760   38.6780   40.7280   N 0  0  0  0  0  0  0  0  0  0  0  0
   51.0680   38.9190   38.4750   N 0  0  0  0  0  0  0  0  0  0  0  0
  1  2  2  0  0  0  0
  1  6  1  0  0  0  0
  1  7  1  0  0  0  0
  2  3  1  0  0  0  0
  3  4  2  0  0  0  0
  4  5  1  0  0  0  0
  5  6  2  0  0  0  0
  7  8  2  0  0  0  0
  7  9  1  0  0  0  0
M  END
>  <InstanceId>
1H4W_BEN_A_250

>  <ChemCompId>
BEN

>  <PdbId>
1H4W

>  <ChainId>
A

>  <ResidueNumber>
250

>  <InsertionCode>


>  <Model>
1

>  <AltIds>


>  <MissingHeavyAtoms>
0

>  <ObservedFormula>
C7 N2

>  <Name>
BENZAMIDINE

>  <SystematicName>
benzenecarboximidamide

>  <Synonyms>


>  <Type>
NON-POLYMER

>  <Formula>
C7 H8 N2

>  <MolecularWeight>
120.152

>  <ModifiedDate>
2011-06-04

>  <Parent>


>  <OneLetterCode>


>  <SubcomponentList>


>  <AmbiguousFlag>
N

>  <InChI>
InChI=1S/C7H8N2/c8-7(9)6-4-2-1-3-5-6/h1-5H,(H3,8,9)

>  <InChIKey>
PXXJHWLDUBFPOL-UHFFFAOYSA-N

>  <SMILES>
[H]/N=C(\c1ccccc1)/N

$$$$
