5MKS_TI8_A_401
  RCSB PDB08022002233D
Coordinates from PDB:5MKS:A:401 Model:1 without hydrogens
 31 34  0  0  0  0            999 V2000
  -20.5080   -9.2630   12.5580   C 0  0  0  0  0  0  0  0  0  0  0  0
  -19.5130   -9.1250   11.5650   C 0  0  0  0  0  0  0  0  0  0  0  0
  -18.3280   -8.5200   11.9470   C 0  0  0  0  0  0  0  0  0  0  0  0
  -16.1350   -8.1260   10.7870   C 0  0  0  0  0  0  0  0  0  0  0  0
  -15.1500   -9.2650   10.6020   C 0  0  0  0  0  0  0  0  0  0  0  0
  -13.9350   -8.4850   10.1110   C 0  0  0  0  0  0  0  0  0  0  0  0
  -14.5710   -7.4090    9.2260   C 0  0  0  0  0  0  0  0  0  0  0  0
  -14.5340   -7.6550    7.7320   C 0  0  0  0  0  0  0  0  0  0  0  0
  -13.1860   -8.1590    7.2260   C 0  0  0  0  0  0  0  0  0  0  0  0
  -13.2570   -8.6790    5.8150   C 0  0  0  0  0  0  0  0  0  0  0  0
  -11.9070   -9.9530    4.3310   C 0  0  0  0  0  0  0  0  0  0  0  0
  -21.6890   -9.8430   12.3480   N 0  0  0  0  0  0  0  0  0  0  0  0
  -14.9460   -9.9490   11.8290   O 0  0  0  0  0  0  0  0  0  0  0  0
  -11.9580   -9.2040    5.4400   O 0  0  0  0  0  0  0  0  0  0  0  0
  -19.0440   -8.2190   14.0240   C 0  0  0  0  0  0  0  0  0  0  0  0
  -17.5270   -8.5250   10.8250   N 0  0  0  0  0  0  0  0  0  0  0  0
  -19.5690  -12.3340    7.5230   C 0  0  0  0  0  0  0  0  0  0  0  0
  -17.9330   -9.2520    8.5480   N 0  0  0  0  0  0  0  0  0  0  0  0
  -18.8030   -9.9270    7.5980   C 0  0  0  0  0  0  0  0  0  0  0  0
  -18.5380  -11.4110    7.6070   C 0  0  0  0  0  0  0  0  0  0  0  0
  -18.2860   -9.1090    9.8290   C 0  0  0  0  0  0  0  0  0  0  0  0
  -13.2280   -7.9050   11.1970   O 0  0  0  0  0  0  0  0  0  0  0  0
  -17.2410  -11.8830    7.7110   C 0  0  0  0  0  0  0  0  0  0  0  0
  -19.4780   -9.4930   10.2300   N 0  0  0  0  0  0  0  0  0  0  0  0
  -15.9370   -7.2730    9.6810   O 0  0  0  0  0  0  0  0  0  0  0  0
  -19.3140  -13.6930    7.5350   C 0  0  0  0  0  0  0  0  0  0  0  0
  -18.0120  -14.1270    7.6320   C 0  0  0  0  0  0  0  0  0  0  0  0
  -16.9710  -13.2360    7.7270   C 0  0  0  0  0  0  0  0  0  0  0  0
  -18.0310   -8.0410   13.1660   N 0  0  0  0  0  0  0  0  0  0  0  0
  -17.6710  -15.8330    7.5930  Cl 0  0  0  0  0  0  0  0  0  0  0  0
  -20.2370   -8.7880   13.8000   N 0  0  0  0  0  0  0  0  0  0  0  0
  9 10  1  0  0  0  0
  9  8  1  0  0  0  0
 25  7  1  0  0  0  0
 25  4  1  0  0  0  0
  7  8  1  0  0  0  0
  7  6  1  0  0  0  0
 10 14  1  0  0  0  0
 29 15  2  0  0  0  0
 29  3  1  0  0  0  0
 22  6  1  0  0  0  0
 15 31  1  0  0  0  0
  4 16  1  0  0  0  0
  4  5  1  0  0  0  0
  3 16  1  0  0  0  0
  3  2  2  0  0  0  0
 16 21  1  0  0  0  0
 31  1  2  0  0  0  0
  6  5  1  0  0  0  0
  2  1  1  0  0  0  0
  2 24  1  0  0  0  0
  1 12  1  0  0  0  0
 21 18  1  0  0  0  0
 21 24  2  0  0  0  0
 14 11  1  0  0  0  0
 18 19  1  0  0  0  0
  5 13  1  0  0  0  0
 19 20  1  0  0  0  0
 20 23  2  0  0  0  0
 20 17  1  0  0  0  0
 23 28  1  0  0  0  0
 17 26  2  0  0  0  0
 28 27  2  0  0  0  0
 26 27  1  0  0  0  0
 27 30  1  0  0  0  0
M  END
>  <InstanceId>
5MKS_TI8_A_401

>  <ChemCompId>
TI8

>  <PdbId>
5MKS

>  <ChainId>
A

>  <ResidueNumber>
401

>  <InsertionCode>


>  <Model>
1

>  <AltIds>


>  <MissingHeavyAtoms>
3

>  <ObservedFormula>
C20 N6 O4 Cl

>  <Name>
3-[(2~{R},3~{S},4~{R},5~{R})-5-[6-azanyl-8-[(4-chlorophenyl)methylamino]purin-9-yl]-3,4-bis(oxidanyl)oxolan-2-yl]propyl prop-2-enoate

>  <SystematicName>
3-[(2~{R},3~{S},4~{R},5~{R})-5-[6-azanyl-8-[(4-chlorophenyl)methylamino]purin-9-yl]-3,4-bis(oxidanyl)oxolan-2-yl]propyl prop-2-enoate

>  <Synonyms>


>  <Type>
NON-POLYMER

>  <Formula>
C22 H25 Cl N6 O5

>  <MolecularWeight>
488.924

>  <ModifiedDate>
2017-02-24

>  <Parent>


>  <OneLetterCode>


>  <SubcomponentList>


>  <AmbiguousFlag>
N

>  <InChI>
InChI=1S/C22H25ClN6O5/c1-2-15(30)33-9-3-4-14-17(31)18(32)21(34-14)29-20-16(19(24)26-11-27-20)28-22(29)25-10-12-5-7-13(23)8-6-12/h2,5-8,11,14,17-18,21,31-32H,1,3-4,9-10H2,(H,25,28)(H2,24,26,27)/t14-,17-,18-,21-/m1/s1

>  <InChIKey>
XOSUZIPWVSJZRF-HAXDFEGKSA-N

>  <SMILES>
C=CC(=O)OCCC[C@@H]1[C@H]([C@H]([C@@H](O1)n2c3c(c(ncn3)N)nc2NCc4ccc(cc4)Cl)O)O

$$$$
