6EIJ_B5Z_A_501
  RCSB PDB08022004313D
Coordinates from PDB:6EIJ:A:501 Model:1 without hydrogens
 33 37  0  0  0  0            999 V2000
   12.2700  -19.1450   49.3610   C 0  0  0  0  0  0  0  0  0  0  0  0
   11.4420  -18.9110   50.4880   C 0  0  0  0  0  0  0  0  0  0  0  0
   11.8490  -17.8160   49.7010   C 0  0  0  0  0  0  0  0  0  0  0  0
   10.7080  -17.0700   48.9550   C 0  0  0  0  0  0  0  0  0  0  0  0
   10.6300  -15.8540   49.0650   O 0  0  0  0  0  0  0  0  0  0  0  0
    9.8520  -17.7920   48.2100   N 0  0  0  0  0  0  0  0  0  0  0  0
    8.8240  -17.1880   47.5940   C 0  0  0  0  0  0  0  0  0  0  0  0
    8.3440  -15.9290   47.6890   N 0  0  0  0  0  0  0  0  0  0  0  0
    7.9250  -17.9930   46.6160   S 0  0  0  0  0  0  0  0  0  0  0  0
    6.9210  -16.8660   46.2430   C 0  0  0  0  0  0  0  0  0  0  0  0
    5.8840  -16.9330   45.4070   N 0  0  0  0  0  0  0  0  0  0  0  0
    7.2490  -15.7390   46.9080   C 0  0  0  0  0  0  0  0  0  0  0  0
    6.4810  -14.6510   46.7040   C 0  0  0  0  0  0  0  0  0  0  0  0
    5.3770  -14.6940   45.8310   C 0  0  0  0  0  0  0  0  0  0  0  0
    5.0850  -15.8930   45.1550   C 0  0  0  0  0  0  0  0  0  0  0  0
    4.0090  -16.1090   44.2760   C 0  0  0  0  0  0  0  0  0  0  0  0
    3.5020  -17.4230   44.1440   C 0  0  0  0  0  0  0  0  0  0  0  0
    3.3910  -15.0800   43.5530   C 0  0  0  0  0  0  0  0  0  0  0  0
    2.3110  -15.3740   42.7110   C 0  0  0  0  0  0  0  0  0  0  0  0
    1.8260  -16.6800   42.5880   C 0  0  0  0  0  0  0  0  0  0  0  0
    2.4290  -17.7200   43.3050   C 0  0  0  0  0  0  0  0  0  0  0  0
    2.0070  -18.9980   43.2190   N 0  0  0  0  0  0  0  0  0  0  0  0
    2.1380  -19.6630   42.0430   C 0  0  0  0  0  0  0  0  0  0  0  0
    2.6350  -19.1260   41.0520   O 0  0  0  0  0  0  0  0  0  0  0  0
    1.6980  -20.9400   41.9640   N 0  0  0  0  0  0  0  0  0  0  0  0
    1.8730  -21.6990   40.7300   C 0  0  0  0  0  0  0  0  0  0  0  0
    0.8320  -22.7960   40.5650   C 0  0  0  0  0  0  0  0  0  0  0  0
   -0.4900  -22.1880   40.2290   N 0  0  0  0  0  0  0  0  0  0  0  0
   -1.5520  -23.2280   40.2680   C 0  0  0  0  0  0  0  0  0  0  0  0
   -2.9420  -22.6820   39.8310   C 0  0  0  0  0  0  0  0  0  0  0  0
   -2.8110  -21.4210   39.0970   O 0  0  0  0  0  0  0  0  0  0  0  0
   -1.8030  -21.5780   38.1310   C 0  0  0  0  0  0  0  0  0  0  0  0
   -0.5040  -21.4320   38.9380   C 0  0  0  0  0  0  0  0  0  0  0  0
  1  2  1  0  0  0  0
  1  3  1  0  0  0  0
  2  3  1  0  0  0  0
  3  4  1  0  0  0  0
  4  5  2  0  0  0  0
  4  6  1  0  0  0  0
  6  7  1  0  0  0  0
  7  8  2  0  0  0  0
  7  9  1  0  0  0  0
  8 12  1  0  0  0  0
  9 10  1  0  0  0  0
 10 11  2  0  0  0  0
 10 12  1  0  0  0  0
 11 15  1  0  0  0  0
 12 13  2  0  0  0  0
 13 14  1  0  0  0  0
 14 15  2  0  0  0  0
 15 16  1  0  0  0  0
 16 17  2  0  0  0  0
 16 18  1  0  0  0  0
 17 21  1  0  0  0  0
 18 19  2  0  0  0  0
 19 20  1  0  0  0  0
 20 21  2  0  0  0  0
 21 22  1  0  0  0  0
 22 23  1  0  0  0  0
 23 24  2  0  0  0  0
 23 25  1  0  0  0  0
 25 26  1  0  0  0  0
 26 27  1  0  0  0  0
 27 28  1  0  0  0  0
 28 29  1  0  0  0  0
 28 33  1  0  0  0  0
 29 30  1  0  0  0  0
 30 31  1  0  0  0  0
 31 32  1  0  0  0  0
 32 33  1  0  0  0  0
M  END
>  <InstanceId>
6EIJ_B5Z_A_501

>  <ChemCompId>
B5Z

>  <PdbId>
6EIJ

>  <ChainId>
A

>  <ResidueNumber>
501

>  <InsertionCode>


>  <Model>
1

>  <AltIds>


>  <MissingHeavyAtoms>
0

>  <ObservedFormula>
C23 N6 O3 S

>  <Name>
~{N}-[5-[3-(2-morpholin-4-ylethylcarbamoylamino)phenyl]-[1,3]thiazolo[5,4-b]pyridin-2-yl]cyclopropanecarboxamide

>  <SystematicName>
~{N}-[5-[3-(2-morpholin-4-ylethylcarbamoylamino)phenyl]-[1,3]thiazolo[5,4-b]pyridin-2-yl]cyclopropanecarboxamide

>  <Synonyms>


>  <Type>
NON-POLYMER

>  <Formula>
C23 H26 N6 O3 S

>  <MolecularWeight>
466.556

>  <ModifiedDate>
2018-08-24

>  <Parent>


>  <OneLetterCode>


>  <SubcomponentList>


>  <AmbiguousFlag>
N

>  <InChI>
InChI=1S/C23H26N6O3S/c30-20(15-4-5-15)28-23-27-19-7-6-18(26-21(19)33-23)16-2-1-3-17(14-16)25-22(31)24-8-9-29-10-12-32-13-11-29/h1-3,6-7,14-15H,4-5,8-13H2,(H2,24,25,31)(H,27,28,30)

>  <InChIKey>
NVIJYBFQLMPXOI-UHFFFAOYSA-N

>  <SMILES>
c1cc(cc(c1)NC(=O)NCCN2CCOCC2)c3ccc4c(n3)sc(n4)NC(=O)C5CC5

$$$$
