2PWR_G4G_B_501
  RCSB PDB08012017453D
Coordinates from PDB:2PWR:B:501 Model:1 without hydrogens
 45 49  0  0  0  0            999 V2000
    8.8740  -15.2670  -14.3570   C 0  0  0  0  0  0  0  0  0  0  0  0
   16.8530  -24.0050  -21.6940   O 0  0  0  0  0  0  0  0  0  0  0  0
    5.3670  -14.6590  -15.4520   N 0  0  0  0  0  0  0  0  0  0  0  0
   14.2270  -23.5980  -20.9400   C 0  0  0  0  0  0  0  0  0  0  0  0
    6.9170  -13.2870  -14.6390   O 0  0  0  0  0  0  0  0  0  0  0  0
   17.2880  -25.3340  -19.9340   N 0  0  0  0  0  0  0  0  0  0  0  0
    7.2730  -16.8000  -15.4750   C 0  0  0  0  0  0  0  0  0  0  0  0
    7.5960  -15.5100  -14.9760   C 0  0  0  0  0  0  0  0  0  0  0  0
   15.0940  -23.8330  -18.6320   C 0  0  0  0  0  0  0  0  0  0  0  0
   15.2280  -23.9790  -20.0310   C 0  0  0  0  0  0  0  0  0  0  0  0
   13.2420  -18.3190  -14.8840   C 0  0  0  0  0  0  0  0  0  0  0  0
   16.5390  -24.4700  -20.6080   C 0  0  0  0  0  0  0  0  0  0  0  0
   10.6330  -18.9330  -14.7480   S 0  0  0  0  0  0  0  0  0  0  0  0
    6.6180  -14.4160  -15.0120   C 0  0  0  0  0  0  0  0  0  0  0  0
   11.3540  -22.3180  -18.3090   S 0  0  0  0  0  0  0  0  0  0  0  0
   10.0430  -20.1460  -15.3530   O 0  0  0  0  0  0  0  0  0  0  0  0
   11.4240  -22.6110  -16.8830   O 0  0  0  0  0  0  0  0  0  0  0  0
   14.0820  -19.5970  -14.7870   C 0  0  0  0  0  0  0  0  0  0  0  0
   13.4530  -20.7730  -14.2410   C 0  0  0  0  0  0  0  0  0  0  0  0
   15.4180  -19.6380  -15.2590   C 0  0  0  0  0  0  0  0  0  0  0  0
    9.8490  -16.2950  -14.3120   C 0  0  0  0  0  0  0  0  0  0  0  0
   12.9930  -23.1350  -20.4170   C 0  0  0  0  0  0  0  0  0  0  0  0
    8.2700  -17.8010  -15.4400   C 0  0  0  0  0  0  0  0  0  0  0  0
   13.8670  -23.3320  -18.1250   C 0  0  0  0  0  0  0  0  0  0  0  0
   12.5410  -17.4910  -17.8800   C 0  0  0  0  0  0  0  0  0  0  0  0
   13.8470  -18.0760  -18.3150   N 0  0  0  0  0  0  0  0  0  0  0  0
   11.7810  -18.6080  -17.1530   C 0  0  0  0  0  0  0  0  0  0  0  0
   12.4750  -19.9660  -17.6010   C 0  0  0  0  0  0  0  0  0  0  0  0
   13.8070  -19.5310  -18.3050   C 0  0  0  0  0  0  0  0  0  0  0  0
    9.5370  -17.5910  -14.8040   C 0  0  0  0  0  0  0  0  0  0  0  0
   12.8450  -22.9610  -19.0320   C 0  0  0  0  0  0  0  0  0  0  0  0
   11.9980  -18.5700  -15.6760   N 0  0  0  0  0  0  0  0  0  0  0  0
   14.3100  -21.9180  -14.2280   C 0  0  0  0  0  0  0  0  0  0  0  0
   16.2950  -20.7760  -15.1760   C 0  0  0  0  0  0  0  0  0  0  0  0
   15.6750  -21.9540  -14.6100   C 0  0  0  0  0  0  0  0  0  0  0  0
   11.6470  -20.6720  -18.6130   N 0  0  0  0  0  0  0  0  0  0  0  0
   11.1550  -20.1270  -19.8950   C 0  0  0  0  0  0  0  0  0  0  0  0
    9.8860  -19.3250  -19.8370   C 0  0  0  0  0  0  0  0  0  0  0  0
    8.8950  -19.6160  -18.8780   C 0  0  0  0  0  0  0  0  0  0  0  0
    7.7540  -18.8090  -18.9050   C 0  0  0  0  0  0  0  0  0  0  0  0
    7.5820  -17.7950  -19.8720   C 0  0  0  0  0  0  0  0  0  0  0  0
    9.7700  -18.2630  -20.7570   C 0  0  0  0  0  0  0  0  0  0  0  0
    8.5840  -17.5070  -20.8320   C 0  0  0  0  0  0  0  0  0  0  0  0
   10.2810  -22.7110  -19.1800   O 0  0  0  0  0  0  0  0  0  0  0  0
   11.1670  -19.0580  -13.3730   O 0  0  0  0  0  0  0  0  0  0  0  0
  1  8  2  0  0  0  0
  1 21  1  0  0  0  0
  2 12  2  0  0  0  0
  3 14  1  0  0  0  0
  4 22  2  0  0  0  0
  4 10  1  0  0  0  0
  5 14  2  0  0  0  0
  6 12  1  0  0  0  0
  7 23  2  0  0  0  0
  7  8  1  0  0  0  0
  8 14  1  0  0  0  0
  9 10  2  0  0  0  0
  9 24  1  0  0  0  0
 10 12  1  0  0  0  0
 11 32  1  0  0  0  0
 11 18  1  0  0  0  0
 13 32  1  0  0  0  0
 13 16  2  0  0  0  0
 13 30  1  0  0  0  0
 13 45  2  0  0  0  0
 15 44  2  0  0  0  0
 15 31  1  0  0  0  0
 15 36  1  0  0  0  0
 15 17  2  0  0  0  0
 18 20  1  0  0  0  0
 18 19  2  0  0  0  0
 19 33  1  0  0  0  0
 20 34  2  0  0  0  0
 21 30  2  0  0  0  0
 22 31  1  0  0  0  0
 23 30  1  0  0  0  0
 24 31  2  0  0  0  0
 25 26  1  0  0  0  0
 25 27  1  0  0  0  0
 26 29  1  0  0  0  0
 27 28  1  0  0  0  0
 27 32  1  0  0  0  0
 28 36  1  0  0  0  0
 28 29  1  0  0  0  0
 33 35  2  0  0  0  0
 34 35  1  0  0  0  0
 36 37  1  0  0  0  0
 37 38  1  0  0  0  0
 38 42  1  0  0  0  0
 38 39  2  0  0  0  0
 39 40  1  0  0  0  0
 40 41  2  0  0  0  0
 41 43  1  0  0  0  0
 42 43  2  0  0  0  0
M  END
>  <InstanceId>
2PWR_G4G_B_501

>  <ChemCompId>
G4G

>  <PdbId>
2PWR

>  <ChainId>
B

>  <ResidueNumber>
501

>  <InsertionCode>


>  <Model>
1

>  <AltIds>


>  <MissingHeavyAtoms>
0

>  <ObservedFormula>
C32 N5 O6 S2

>  <Name>
4,4'-{(3S,4S)-PYRROLIDINE-3,4-DIYLBIS[(BENZYLIMINO)SULFONYL]}DIBENZAMIDE

>  <SystematicName>
4-[[(3S,4S)-4-[(4-aminocarbonylphenyl)sulfonyl-(phenylmethyl)amino]pyrrolidin-3-yl]-(phenylmethyl)sulfamoyl]benzamide

>  <Synonyms>


>  <Type>
NON-POLYMER

>  <Formula>
C32 H33 N5 O6 S2

>  <MolecularWeight>
647.764

>  <ModifiedDate>
2011-06-04

>  <Parent>


>  <OneLetterCode>


>  <SubcomponentList>


>  <AmbiguousFlag>


>  <InChI>
InChI=1S/C32H33N5O6S2/c33-31(38)25-11-15-27(16-12-25)44(40,41)36(21-23-7-3-1-4-8-23)29-19-35-20-30(29)37(22-24-9-5-2-6-10-24)45(42,43)28-17-13-26(14-18-28)32(34)39/h1-18,29-30,35H,19-22H2,(H2,33,38)(H2,34,39)/t29-,30-/m0/s1

>  <InChIKey>
SSQKDDJMCKLBOH-KYJUHHDHSA-N

>  <SMILES>
c1ccc(cc1)CN([C@H]2CNC[C@@H]2N(Cc3ccccc3)S(=O)(=O)c4ccc(cc4)C(=O)N)S(=O)(=O)c5ccc(cc5)C(=O)N

$$$$
