1OGX_EQU_A_1128
  RCSB PDB08012015383D
Coordinates from PDB:1OGX:A:1128 Model:1 without hydrogens
 20 23  0  0  0  0            999 V2000
   22.5660  -34.2520  -37.6220   C 0  0  0  0  0  0  0  0  0  0  0  0
   22.2170  -33.1160  -36.8760   C 0  0  0  0  0  0  0  0  0  0  0  0
   23.0220  -31.9490  -37.0110   C 0  0  0  0  0  0  0  0  0  0  0  0
   24.2030  -31.9480  -37.9250   C 0  0  0  0  0  0  0  0  0  0  0  0
   24.5010  -33.1250  -38.6550   C 0  0  0  0  0  0  0  0  0  0  0  0
   23.7000  -34.2570  -38.5070   C 0  0  0  0  0  0  0  0  0  0  0  0
   22.6570  -30.7840  -36.2380   C 0  0  0  0  0  0  0  0  0  0  0  0
   23.4590  -29.6090  -36.3660   C 0  0  0  0  0  0  0  0  0  0  0  0
   24.6060  -29.5950  -37.2490   C 0  0  0  0  0  0  0  0  0  0  0  0
   24.9890  -30.7540  -38.0320   C 0  0  0  0  0  0  0  0  0  0  0  0
   25.3990  -28.3380  -37.3540   C 0  0  0  0  0  0  0  0  0  0  0  0
   26.1050  -28.1920  -38.7320   C 0  0  0  0  0  0  0  0  0  0  0  0
   26.9850  -29.4240  -39.0390   C 0  0  0  0  0  0  0  0  0  0  0  0
   26.1830  -30.7550  -38.9650   C 0  0  0  0  0  0  0  0  0  0  0  0
   24.6410  -26.9810  -37.2870   C 0  0  0  0  0  0  0  0  0  0  0  0
   25.8430  -25.9950  -37.4810   C 0  0  0  0  0  0  0  0  0  0  0  0
   26.7650  -26.8380  -38.4330   C 0  0  0  0  0  0  0  0  0  0  0  0
   25.1050  -27.9730  -39.8780   C 0  0  0  0  0  0  0  0  0  0  0  0
   21.8060  -35.3060  -37.4610   O 0  0  0  0  0  0  0  0  0  0  0  0
   27.8370  -26.4800  -38.8630   O 0  0  0  0  0  0  0  0  0  0  0  0
  1  2  2  0  0  0  0
  1  6  1  0  0  0  0
  1 19  1  0  0  0  0
  2  3  1  0  0  0  0
  3  4  2  0  0  0  0
  3  7  1  0  0  0  0
  4  5  1  0  0  0  0
  4 10  1  0  0  0  0
  5  6  2  0  0  0  0
  7  8  2  0  0  0  0
  8  9  1  0  0  0  0
  9 10  2  0  0  0  0
  9 11  1  0  0  0  0
 10 14  1  0  0  0  0
 11 12  1  0  0  0  0
 11 15  1  0  0  0  0
 12 13  1  0  0  0  0
 12 17  1  0  0  0  0
 12 18  1  0  0  0  0
 13 14  1  0  0  0  0
 15 16  1  0  0  0  0
 16 17  1  0  0  0  0
 17 20  2  0  0  0  0
M  END
>  <InstanceId>
1OGX_EQU_A_1128

>  <ChemCompId>
EQU

>  <PdbId>
1OGX

>  <ChainId>
A

>  <ResidueNumber>
1128

>  <InsertionCode>


>  <Model>
1

>  <AltIds>


>  <MissingHeavyAtoms>
0

>  <ObservedFormula>
C18 O2

>  <Name>
EQUILENIN

>  <SystematicName>
(13S,14S)-3-hydroxy-13-methyl-12,14,15,16-tetrahydro-11H-cyclopenta[a]phenanthren-17-one

>  <Synonyms>


>  <Type>
NON-POLYMER

>  <Formula>
C18 H18 O2

>  <MolecularWeight>
266.334

>  <ModifiedDate>
2011-06-04

>  <Parent>


>  <OneLetterCode>


>  <SubcomponentList>


>  <AmbiguousFlag>
N

>  <InChI>
InChI=1S/C18H18O2/c1-18-9-8-14-13-5-3-12(19)10-11(13)2-4-15(14)16(18)6-7-17(18)20/h2-5,10,16,19H,6-9H2,1H3/t16-,18-/m0/s1

>  <InChIKey>
PDRGHUMCVRDZLQ-WMZOPIPTSA-N

>  <SMILES>
C[C@]12CCc3c4ccc(cc4ccc3[C@@H]1CCC2=O)O

$$$$
