1ZHY_CLR_A_1001
  RCSB PDB08012016323D
Coordinates from PDB:1ZHY:A:1001 Model:1 without hydrogens
 28 31  0  0  0  0            999 V2000
   57.7400   36.0540   33.4270   C 0  0  0  0  0  0  0  0  0  0  0  0
   57.7820   36.1530   34.9560   C 0  0  0  0  0  0  0  0  0  0  0  0
   56.3760   36.0200   35.5470   C 0  0  0  0  0  0  0  0  0  0  0  0
   55.7960   34.6540   35.1730   C 0  0  0  0  0  0  0  0  0  0  0  0
   55.8600   34.4410   33.6580   C 0  0  0  0  0  0  0  0  0  0  0  0
   54.7230   34.0100   32.9840   C 0  0  0  0  0  0  0  0  0  0  0  0
   54.6060   33.8010   31.6150   C 0  0  0  0  0  0  0  0  0  0  0  0
   55.9620   33.7420   30.9020   C 0  0  0  0  0  0  0  0  0  0  0  0
   56.9070   34.8450   31.3980   C 0  0  0  0  0  0  0  0  0  0  0  0
   57.1660   34.7310   32.9070   C 0  0  0  0  0  0  0  0  0  0  0  0
   58.2000   34.8910   30.5720   C 0  0  0  0  0  0  0  0  0  0  0  0
   57.9480   34.9520   29.0590   C 0  0  0  0  0  0  0  0  0  0  0  0
   57.0630   33.7850   28.6110   C 0  0  0  0  0  0  0  0  0  0  0  0
   55.7530   33.8960   29.3930   C 0  0  0  0  0  0  0  0  0  0  0  0
   54.8930   32.8320   28.7130   C 0  0  0  0  0  0  0  0  0  0  0  0
   55.1270   33.1900   27.2420   C 0  0  0  0  0  0  0  0  0  0  0  0
   56.4720   33.9260   27.2040   C 0  0  0  0  0  0  0  0  0  0  0  0
   57.7540   32.4310   28.8240   C 0  0  0  0  0  0  0  0  0  0  0  0
   58.1370   33.5840   33.2050   C 0  0  0  0  0  0  0  0  0  0  0  0
   57.3590   33.4520   26.0460   C 0  0  0  0  0  0  0  0  0  0  0  0
   58.6160   34.3190   25.9510   C 0  0  0  0  0  0  0  0  0  0  0  0
   56.5810   33.5110   24.7270   C 0  0  0  0  0  0  0  0  0  0  0  0
   57.3250   32.8640   23.5550   C 0  0  0  0  0  0  0  0  0  0  0  0
   56.5200   32.9270   22.2530   C 0  0  0  0  0  0  0  0  0  0  0  0
   55.2910   32.0110   22.2620   C 0  0  0  0  0  0  0  0  0  0  0  0
   54.6480   31.9210   20.8760   C 0  0  0  0  0  0  0  0  0  0  0  0
   54.2580   32.4620   23.2970   C 0  0  0  0  0  0  0  0  0  0  0  0
   56.4380   36.1370   36.9710   O 0  0  0  0  0  0  0  0  0  0  0  0
  1  2  1  0  0  0  0
  1 10  1  0  0  0  0
  2  3  1  0  0  0  0
  3  4  1  0  0  0  0
  3 28  1  0  0  0  0
  4  5  1  0  0  0  0
  5  6  2  0  0  0  0
  5 10  1  0  0  0  0
  6  7  1  0  0  0  0
  7  8  1  0  0  0  0
  8  9  1  0  0  0  0
  8 14  1  0  0  0  0
  9 10  1  0  0  0  0
  9 11  1  0  0  0  0
 10 19  1  0  0  0  0
 11 12  1  0  0  0  0
 12 13  1  0  0  0  0
 13 14  1  0  0  0  0
 13 17  1  0  0  0  0
 13 18  1  0  0  0  0
 14 15  1  0  0  0  0
 15 16  1  0  0  0  0
 16 17  1  0  0  0  0
 17 20  1  0  0  0  0
 20 21  1  0  0  0  0
 20 22  1  0  0  0  0
 22 23  1  0  0  0  0
 23 24  1  0  0  0  0
 24 25  1  0  0  0  0
 25 26  1  0  0  0  0
 25 27  1  0  0  0  0
M  END
>  <InstanceId>
1ZHY_CLR_A_1001

>  <ChemCompId>
CLR

>  <PdbId>
1ZHY

>  <ChainId>
A

>  <ResidueNumber>
1001

>  <InsertionCode>


>  <Model>
1

>  <AltIds>


>  <MissingHeavyAtoms>
0

>  <ObservedFormula>
C27 O

>  <Name>
CHOLESTEROL

>  <SystematicName>
(3S,8S,9S,10R,13R,14S,17R)-10,13-dimethyl-17-[(2R)-6-methylheptan-2-yl]-2,3,4,7,8,9,11,12,14,15,16,17-dodecahydro-1H-cyclopenta[a]phenanthren-3-ol

>  <Synonyms>


>  <Type>
NON-POLYMER

>  <Formula>
C27 H46 O

>  <MolecularWeight>
386.654

>  <ModifiedDate>
2011-06-04

>  <Parent>


>  <OneLetterCode>


>  <SubcomponentList>


>  <AmbiguousFlag>
N

>  <InChI>
InChI=1S/C27H46O/c1-18(2)7-6-8-19(3)23-11-12-24-22-10-9-20-17-21(28)13-15-26(20,4)25(22)14-16-27(23,24)5/h9,18-19,21-25,28H,6-8,10-17H2,1-5H3/t19-,21+,22+,23-,24+,25+,26+,27-/m1/s1

>  <InChIKey>
HVYWMOMLDIMFJA-DPAQBDIFSA-N

>  <SMILES>
CC(C)CCC[C@@H](C)[C@H]1CC[C@@H]2[C@@]1(CC[C@H]3[C@H]2CC=C4[C@@]3(CC[C@@H](C4)O)C)C

$$$$
