2AMT_1AA_A_1901
  RCSB PDB08012016373D
Coordinates from PDB:2AMT:A:1901 Model:1 without hydrogens
 37 39  0  0  0  0            999 V2000
    4.7270    4.8630   15.1430   O 0  0  0  0  0  0  0  0  0  0  0  0
    3.7620    5.6210   15.0730   C 0  0  0  0  0  0  0  0  0  0  0  0
    3.4470    6.4200   16.1820   N 0  0  0  0  0  0  0  0  0  0  0  0
    2.3540    7.2940   16.1370   C 0  0  0  0  0  0  0  0  0  0  0  0
    2.0660    8.0440   17.1960   N 0  0  0  0  0  0  0  0  0  0  0  0
    1.5750    7.3740   14.9870   C 0  0  0  0  0  0  0  0  0  0  0  0
    1.8800    6.5880   13.8780   C 0  0  0  0  0  0  0  0  0  0  0  0
    2.9760    5.6970   13.9030   N 0  0  0  0  0  0  0  0  0  0  0  0
    3.3060    4.8530   12.7090   C 0  0  0  0  0  0  0  0  0  0  0  0
    3.2360    5.6570   11.4910   O 0  0  0  0  0  0  0  0  0  0  0  0
    2.3420    3.6720   12.5190   C 0  0  0  0  0  0  0  0  0  0  0  0
    3.0800    2.5090   12.1220   O 0  0  0  0  0  0  0  0  0  0  0  0
    1.4280    4.1350   11.3910   C 0  0  0  0  0  0  0  0  0  0  0  0
    0.9520    3.0170   10.6330   O 0  0  0  0  0  0  0  0  0  0  0  0
    2.3650    4.9960   10.5450   C 0  0  0  0  0  0  0  0  0  0  0  0
    1.5780    6.0850    9.8130   C 0  0  0  0  0  0  0  0  0  0  0  0
    0.8740    6.9350   10.7380   O 0  0  0  0  0  0  0  0  0  0  0  0
   -0.3880    7.8150   10.2670   P 0  0  0  0  0  0  0  0  0  0  0  0
    0.1250    9.0480    9.6290   O 0  0  0  0  0  0  0  0  0  0  0  0
   -1.3440    7.9170   11.3880   O 0  0  0  0  0  0  0  0  0  0  0  0
   -1.0550    6.8460    9.1530   O 0  0  0  0  0  0  0  0  0  0  0  0
   -1.6890    7.3550    7.7500   P 0  0  0  0  0  0  0  0  0  0  0  0
   -1.1870    8.7030    7.3930   O 0  0  0  0  0  0  0  0  0  0  0  0
   -3.1520    7.1150    7.7900   O 0  0  0  0  0  0  0  0  0  0  0  0
   -1.0370    6.3120    6.6970   O 0  0  0  0  0  0  0  0  0  0  0  0
   -1.2440    4.8950    6.8140   C 0  0  0  0  0  0  0  0  0  0  0  0
    0.0910    4.1500    6.7590   C 0  0  0  0  0  0  0  0  0  0  0  0
    0.2910    3.5620    5.4520   O 0  0  0  0  0  0  0  0  0  0  0  0
    1.3570    4.0900    4.7730   C 0  0  0  0  0  0  0  0  0  0  0  0
    2.2660    4.6590    5.3820   O 0  0  0  0  0  0  0  0  0  0  0  0
    1.4120    3.9610    3.2400   C 0  0  0  0  0  0  0  0  0  0  0  0
    0.2290    3.7710    2.5230   C 0  0  0  0  0  0  0  0  0  0  0  0
    0.2650    3.6530    1.1330   C 0  0  0  0  0  0  0  0  0  0  0  0
    1.4790    3.7210    0.4510   C 0  0  0  0  0  0  0  0  0  0  0  0
    2.6630    3.9110    1.1620   C 0  0  0  0  0  0  0  0  0  0  0  0
    2.6310    4.0320    2.5520   C 0  0  0  0  0  0  0  0  0  0  0  0
    3.7750    4.2140    3.2060   N 0  0  0  0  0  0  0  0  0  0  0  0
  1  2  2  0  0  0  0
  2  3  1  0  0  0  0
  2  8  1  0  0  0  0
  3  4  2  0  0  0  0
  4  5  1  0  0  0  0
  4  6  1  0  0  0  0
  6  7  2  0  0  0  0
  7  8  1  0  0  0  0
  8  9  1  0  0  0  0
  9 10  1  0  0  0  0
  9 11  1  0  0  0  0
 10 15  1  0  0  0  0
 11 12  1  0  0  0  0
 11 13  1  0  0  0  0
 13 14  1  0  0  0  0
 13 15  1  0  0  0  0
 15 16  1  0  0  0  0
 16 17  1  0  0  0  0
 17 18  1  0  0  0  0
 18 19  2  0  0  0  0
 18 20  1  0  0  0  0
 18 21  1  0  0  0  0
 21 22  1  0  0  0  0
 22 23  2  0  0  0  0
 22 24  1  0  0  0  0
 22 25  1  0  0  0  0
 25 26  1  0  0  0  0
 26 27  1  0  0  0  0
 27 28  1  0  0  0  0
 28 29  1  0  0  0  0
 29 30  2  0  0  0  0
 29 31  1  0  0  0  0
 31 32  2  0  0  0  0
 31 36  1  0  0  0  0
 32 33  1  0  0  0  0
 33 34  2  0  0  0  0
 34 35  1  0  0  0  0
 35 36  2  0  0  0  0
 36 37  1  0  0  0  0
M  END
>  <InstanceId>
2AMT_1AA_A_1901

>  <ChemCompId>
1AA

>  <PdbId>
2AMT

>  <ChainId>
A

>  <ResidueNumber>
1901

>  <InsertionCode>


>  <Model>
1

>  <AltIds>


>  <MissingHeavyAtoms>
0

>  <ObservedFormula>
C18 N4 O13 P2

>  <Name>
5'-O-[({[(2-{[(2-AMINOPHENYL)CARBONYL]OXY}ETHYL)OXY]PHOSPHINATO}OXY)PHOSPHINATO]CYTIDINE

>  <SystematicName>
2-[[[(2R,3S,4R,5R)-5-(4-amino-2-oxo-pyrimidin-1-yl)-3,4-dihydroxy-oxolan-2-yl]methoxy-hydroxy-phosphoryl]oxy-hydroxy-phosphoryl]oxyethyl 2-aminobenzoate

>  <Synonyms>


>  <Type>
NON-POLYMER

>  <Formula>
C18 H24 N4 O13 P2

>  <MolecularWeight>
566.35

>  <ModifiedDate>
2011-06-04

>  <Parent>


>  <OneLetterCode>


>  <SubcomponentList>


>  <AmbiguousFlag>
N

>  <InChI>
InChI=1S/C18H24N4O13P2/c19-11-4-2-1-3-10(11)17(25)31-7-8-32-36(27,28)35-37(29,30)33-9-12-14(23)15(24)16(34-12)22-6-5-13(20)21-18(22)26/h1-6,12,14-16,23-24H,7-9,19H2,(H,27,28)(H,29,30)(H2,20,21,26)/t12-,14-,15-,16-/m1/s1

>  <InChIKey>
PGXVRIOOHRVKLC-DTZQCDIJSA-N

>  <SMILES>
c1ccc(c(c1)C(=O)OCCO[P@@](=O)(O)O[P@@](=O)(O)OC[C@@H]2[C@H]([C@H]([C@@H](O2)N3C=CC(=NC3=O)N)O)O)N

$$$$
