6DAK_G1Y_A_401
  RCSB PDB08022004213D
Coordinates from PDB:6DAK:A:401 Model:1 without hydrogens
 24 27  0  0  0  0            999 V2000
  -12.0290   23.1100    3.2970   O 0  0  0  0  0  0  0  0  0  0  0  0
  -11.7140   23.9350    4.0950   C 0  0  0  0  0  0  0  0  0  0  0  0
  -12.6730   24.4260    5.1600   C 0  0  0  0  0  0  0  0  0  0  0  0
  -12.4630   25.8110    5.7590   C 0  0  0  0  0  0  0  0  0  0  0  0
  -13.4180   26.3230    6.8290   C 0  0  0  0  0  0  0  0  0  0  0  0
  -14.5740   25.4410    7.2890   C 0  0  0  0  0  0  0  0  0  0  0  0
  -14.7790   24.0570    6.6770   C 0  0  0  0  0  0  0  0  0  0  0  0
  -13.8270   23.5430    5.6090   C 0  0  0  0  0  0  0  0  0  0  0  0
  -10.3980   24.5110    4.1040   N 0  0  0  0  0  0  0  0  0  0  0  0
   -9.4440   24.0390    3.1370   C 0  0  0  0  0  0  0  0  0  0  0  0
   -9.6120   24.9150    1.9170   C 0  0  0  0  0  0  0  0  0  0  0  0
   -8.8000   26.1880    1.7920   C 0  0  0  0  0  0  0  0  0  0  0  0
   -8.9510   27.0850    0.5780   C 0  0  0  0  0  0  0  0  0  0  0  0
   -9.9240   26.7040   -0.5250   C 0  0  0  0  0  0  0  0  0  0  0  0
  -10.7270   25.4380   -0.3540   C 0  0  0  0  0  0  0  0  0  0  0  0
  -11.7620   25.0500   -1.3660   C 0  0  0  0  0  0  0  0  0  0  0  0
  -12.4470   25.9310   -2.1920   C 0  0  0  0  0  0  0  0  0  0  0  0
  -13.2930   25.1890   -2.9000   N 0  0  0  0  0  0  0  0  0  0  0  0
  -14.3480   25.2620   -3.9670   C 0  0  0  0  0  0  0  0  0  0  0  0
  -14.7680   23.8620   -4.3110   C 0  0  0  0  0  0  0  0  0  0  0  0
  -14.1270   22.9830   -3.3100   C 0  0  0  0  0  0  0  0  0  0  0  0
  -13.1590   23.8540   -2.5060   C 0  0  0  0  0  0  0  0  0  0  0  0
  -12.2060   23.7840   -1.5550   N 0  0  0  0  0  0  0  0  0  0  0  0
  -10.6020   24.5340    0.8510   C 0  0  0  0  0  0  0  0  0  0  0  0
 20 19  1  0  0  0  0
 20 21  1  0  0  0  0
 19 18  1  0  0  0  0
 21 22  1  0  0  0  0
 18 22  1  0  0  0  0
 18 17  1  0  0  0  0
 22 23  2  0  0  0  0
 17 16  2  0  0  0  0
 23 16  1  0  0  0  0
 16 15  1  0  0  0  0
 14 15  2  0  0  0  0
 14 13  1  0  0  0  0
 15 24  1  0  0  0  0
 13 12  2  0  0  0  0
 24 11  2  0  0  0  0
 12 11  1  0  0  0  0
 11 10  1  0  0  0  0
 10  9  1  0  0  0  0
  1  2  2  0  0  0  0
  2  9  1  0  0  0  0
  2  3  1  0  0  0  0
  3  8  2  0  0  0  0
  3  4  1  0  0  0  0
  8  7  1  0  0  0  0
  4  5  2  0  0  0  0
  7  6  2  0  0  0  0
  5  6  1  0  0  0  0
M  END
>  <InstanceId>
6DAK_G1Y_A_401

>  <ChemCompId>
G1Y

>  <PdbId>
6DAK

>  <ChainId>
A

>  <ResidueNumber>
401

>  <InsertionCode>


>  <Model>
1

>  <AltIds>


>  <MissingHeavyAtoms>
0

>  <ObservedFormula>
C20 N3 O

>  <Name>
N-{[3-(6,7-dihydro-5H-pyrrolo[1,2-a]imidazol-2-yl)phenyl]methyl}benzamide

>  <SystematicName>
~{N}-[[3-(6,7-dihydro-5~{H}-pyrrolo[1,2-a]imidazol-2-yl)phenyl]methyl]benzamide

>  <Synonyms>


>  <Type>
NON-POLYMER

>  <Formula>
C20 H19 N3 O

>  <MolecularWeight>
317.384

>  <ModifiedDate>
2018-08-31

>  <Parent>


>  <OneLetterCode>


>  <SubcomponentList>


>  <AmbiguousFlag>
N

>  <InChI>
InChI=1S/C20H19N3O/c24-20(16-7-2-1-3-8-16)21-13-15-6-4-9-17(12-15)18-14-23-11-5-10-19(23)22-18/h1-4,6-9,12,14H,5,10-11,13H2,(H,21,24)

>  <InChIKey>
OHOWMSISBAWFED-UHFFFAOYSA-N

>  <SMILES>
c1ccc(cc1)C(=O)NCc2cccc(c2)c3cn4c(n3)CCC4

$$$$
