2HAW_2PN_A_2001
  RCSB PDB08012017073D
Coordinates from PDB:2HAW:A:2001 Model:1 without hydrogens
  9  8  0  0  0  0            999 V2000
  -10.8010   -7.7140  125.3170   P 0  0  0  0  0  0  0  0  0  0  0  0
  -10.3070   -8.3430  124.0260   O 0  0  0  0  0  0  0  0  0  0  0  0
  -10.0050   -8.6030  126.4190   O 0  0  0  0  0  0  0  0  0  0  0  0
  -10.4990   -6.1790  125.4690   O 0  0  0  0  0  0  0  0  0  0  0  0
  -12.6090   -7.9040  125.5370   N 0  0  0  0  0  0  0  0  0  0  0  0
  -13.8650   -7.1380  125.6220   P 0  0  0  0  0  0  0  0  0  0  0  0
  -14.7670   -7.8830  124.5540   O 0  0  0  0  0  0  0  0  0  0  0  0
  -14.4230   -7.0990  126.9460   O 0  0  0  0  0  0  0  0  0  0  0  0
  -13.4520   -5.6580  125.2260   O 0  0  0  0  0  0  0  0  0  0  0  0
  1  2  2  0  0  0  0
  1  3  1  0  0  0  0
  1  4  1  0  0  0  0
  1  5  1  0  0  0  0
  5  6  1  0  0  0  0
  6  7  2  0  0  0  0
  6  8  1  0  0  0  0
  6  9  1  0  0  0  0
M  END
>  <InstanceId>
2HAW_2PN_A_2001

>  <ChemCompId>
2PN

>  <PdbId>
2HAW

>  <ChainId>
A

>  <ResidueNumber>
2001

>  <InsertionCode>


>  <Model>
1

>  <AltIds>


>  <MissingHeavyAtoms>
0

>  <ObservedFormula>
N O6 P2

>  <Name>
IMIDODIPHOSPHORIC ACID

>  <SystematicName>
(phosphonoamino)phosphonic acid

>  <Synonyms>


>  <Type>
NON-POLYMER

>  <Formula>
H5 N O6 P2

>  <MolecularWeight>
176.99

>  <ModifiedDate>
2011-06-04

>  <Parent>


>  <OneLetterCode>


>  <SubcomponentList>


>  <AmbiguousFlag>
N

>  <InChI>
InChI=1S/H5NO6P2/c2-8(3,4)1-9(5,6)7/h(H5,1,2,3,4,5,6,7)

>  <InChIKey>
GNGSOPFGGKKDQP-UHFFFAOYSA-N

>  <SMILES>
N(P(=O)(O)O)P(=O)(O)O

$$$$
