5NVV_9BT_C_301
  RCSB PDB08022002363D
Coordinates from PDB:5NVV:C:301 Model:1 without hydrogens
 34 36  0  0  0  0            999 V2000
   12.4800   50.0040   81.1180   C 0  0  0  0  0  0  0  0  0  0  0  0
   13.8710   50.5930   81.4010   C 0  0  0  0  0  0  0  0  0  0  0  0
   14.8160   50.5150   80.4410   N 0  0  0  0  0  0  0  0  0  0  0  0
   15.9980   51.0420   80.7600   C 0  0  0  0  0  0  0  0  0  0  0  0
   15.8910   51.6460   82.2890   S 0  0  0  0  0  0  0  0  0  0  0  0
   14.2580   51.1810   82.5460   C 0  0  0  0  0  0  0  0  0  0  0  0
   13.5140   51.4040   83.6510   C 0  0  0  0  0  0  0  0  0  0  0  0
   12.6360   50.4400   84.1710   C 0  0  0  0  0  0  0  0  0  0  0  0
   11.8660   50.7020   85.3050   C 0  0  0  0  0  0  0  0  0  0  0  0
   13.5850   52.6230   84.3180   C 0  0  0  0  0  0  0  0  0  0  0  0
   12.8080   52.8880   85.4630   C 0  0  0  0  0  0  0  0  0  0  0  0
   11.9300   51.9240   85.9730   C 0  0  0  0  0  0  0  0  0  0  0  0
   11.1120   52.1000   87.0990   C 0  0  0  0  0  0  0  0  0  0  0  0
   11.5940   53.2420   87.9130   N 0  0  0  0  0  0  0  0  0  0  0  0
   12.4080   53.1130   88.9720   C 0  0  0  0  0  0  0  0  0  0  0  0
   12.8360   52.0240   89.3400   O 0  0  0  0  0  0  0  0  0  0  0  0
   12.8290   54.3210   89.5750   C 0  0  0  0  0  0  0  0  0  0  0  0
   14.1620   54.7480   88.9150   C 0  0  0  0  0  0  0  0  0  0  0  0
   14.9970   55.3770   90.0150   C 0  0  0  0  0  0  0  0  0  0  0  0
   14.6820   56.7690   90.1190   O 0  0  0  0  0  0  0  0  0  0  0  0
   14.5780   54.5990   91.2710   C 0  0  0  0  0  0  0  0  0  0  0  0
   13.1430   54.2080   91.0430   N 0  0  0  0  0  0  0  0  0  0  0  0
   12.1790   53.8410   91.9180   C 0  0  0  0  0  0  0  0  0  0  0  0
   11.0270   53.6010   91.5680   O 0  0  0  0  0  0  0  0  0  0  0  0
   12.5450   53.7690   93.4230   C 0  0  0  0  0  0  0  0  0  0  0  0
   12.7090   52.3170   93.9400   C 0  0  0  0  0  0  0  0  0  0  0  0
   11.3850   51.4920   93.8960   C 0  0  0  0  0  0  0  0  0  0  0  0
   13.1960   52.3880   95.4100   C 0  0  0  0  0  0  0  0  0  0  0  0
   13.7700   51.5520   93.1110   C 0  0  0  0  0  0  0  0  0  0  0  0
   11.4160   54.4080   94.0950   N 0  0  0  0  0  0  0  0  0  0  0  0
   11.4220   55.5970   94.6920   C 0  0  0  0  0  0  0  0  0  0  0  0
   12.4140   56.3060   94.8690   O 0  0  0  0  0  0  0  0  0  0  0  0
   10.0500   55.9470   95.2650   C 0  0  0  0  0  0  0  0  0  0  0  0
   10.2460   57.1850   95.9420   O 0  0  0  0  0  0  0  0  0  0  0  0
  3  4  2  0  0  0  0
  3  2  1  0  0  0  0
  4  5  1  0  0  0  0
  1  2  1  0  0  0  0
  2  6  2  0  0  0  0
  5  6  1  0  0  0  0
  6  7  1  0  0  0  0
  7  8  2  0  0  0  0
  7 10  1  0  0  0  0
  8  9  1  0  0  0  0
 10 11  2  0  0  0  0
  9 12  2  0  0  0  0
 11 12  1  0  0  0  0
 12 13  1  0  0  0  0
 13 14  1  0  0  0  0
 14 15  1  0  0  0  0
 18 17  1  0  0  0  0
 18 19  1  0  0  0  0
 15 16  2  0  0  0  0
 15 17  1  0  0  0  0
 17 22  1  0  0  0  0
 19 20  1  0  0  0  0
 19 21  1  0  0  0  0
 22 21  1  0  0  0  0
 22 23  1  0  0  0  0
 24 23  2  0  0  0  0
 23 25  1  0  0  0  0
 29 26  1  0  0  0  0
 25 26  1  0  0  0  0
 25 30  1  0  0  0  0
 27 26  1  0  0  0  0
 26 28  1  0  0  0  0
 30 31  1  0  0  0  0
 31 32  2  0  0  0  0
 31 33  1  0  0  0  0
 33 34  1  0  0  0  0
M  END
>  <InstanceId>
5NVV_9BT_C_301

>  <ChemCompId>
9BT

>  <PdbId>
5NVV

>  <ChainId>
C

>  <ResidueNumber>
301

>  <InsertionCode>


>  <Model>
1

>  <AltIds>


>  <MissingHeavyAtoms>
0

>  <ObservedFormula>
C24 N4 O5 S

>  <Name>
(2~{S},4~{R})-1-[(2~{S})-3,3-dimethyl-2-(2-oxidanylethanoylamino)butanoyl]-~{N}-[[4-(4-methyl-1,3-thiazol-5-yl)phenyl]methyl]-4-oxidanyl-pyrrolidine-2-carboxamide

>  <SystematicName>
(2~{S},4~{R})-1-[(2~{S})-3,3-dimethyl-2-(2-oxidanylethanoylamino)butanoyl]-~{N}-[[4-(4-methyl-1,3-thiazol-5-yl)phenyl]methyl]-4-oxidanyl-pyrrolidine-2-carboxamide

>  <Synonyms>


>  <Type>
NON-POLYMER

>  <Formula>
C24 H32 N4 O5 S

>  <MolecularWeight>
488.6

>  <ModifiedDate>
2017-09-15

>  <Parent>


>  <OneLetterCode>


>  <SubcomponentList>


>  <AmbiguousFlag>
N

>  <InChI>
InChI=1S/C24H32N4O5S/c1-14-20(34-13-26-14)16-7-5-15(6-8-16)10-25-22(32)18-9-17(30)11-28(18)23(33)21(24(2,3)4)27-19(31)12-29/h5-8,13,17-18,21,29-30H,9-12H2,1-4H3,(H,25,32)(H,27,31)/t17-,18+,21-/m1/s1

>  <InChIKey>
OFCMFZVSIVJIET-LVCYWYKZSA-N

>  <SMILES>
Cc1c(scn1)c2ccc(cc2)CNC(=O)[C@@H]3C[C@H](CN3C(=O)[C@H](C(C)(C)C)NC(=O)CO)O

$$$$
