6E4A_HRY_A_201
  RCSB PDB08022004283D
Coordinates from PDB:6E4A:A:201 Model:1 without hydrogens
 38 42  0  0  0  0            999 V2000
   15.9120   -5.5460   46.4400   N 0  0  0  0  0  0  0  0  0  0  0  0
   16.4570   -4.4210   44.4510   N 0  0  0  0  0  0  0  0  0  0  0  0
   14.2930    1.7750   48.8110   C 0  0  0  0  0  0  0  0  0  0  0  0
   14.7710    0.5750   48.3080   C 0  0  0  0  0  0  0  0  0  0  0  0
   14.2880   -0.6240   48.7340   C 0  0  0  0  0  0  0  0  0  0  0  0
   13.2290   -0.6700   49.6310   C 0  0  0  0  0  0  0  0  0  0  0  0
   11.6580    0.3610   51.0980   C 0  0  0  0  0  0  0  0  0  0  0  0
   14.7560   -1.9290   48.1490   C 0  0  0  0  0  0  0  0  0  0  0  0
   14.6140   -3.1210   48.9000   C 0  0  0  0  0  0  0  0  0  0  0  0
   15.0410   -4.3020   48.3180   C 0  0  0  0  0  0  0  0  0  0  0  0
   12.7090    2.7730   50.2270   O 0  0  0  0  0  0  0  0  0  0  0  0
   13.2610    1.7190   49.7510   C 0  0  0  0  0  0  0  0  0  0  0  0
   12.7410    0.4990   50.1180   N 0  0  0  0  0  0  0  0  0  0  0  0
   15.1870   -1.9780   46.8770   C 0  0  0  0  0  0  0  0  0  0  0  0
   15.6600   -3.1700   46.3190   C 0  0  0  0  0  0  0  0  0  0  0  0
   15.5540   -4.3360   47.0300   C 0  0  0  0  0  0  0  0  0  0  0  0
   16.3190   -5.5930   45.1830   C 0  0  0  0  0  0  0  0  0  0  0  0
   16.7680   -6.7670   44.5730   N 0  0  0  0  0  0  0  0  0  0  0  0
   17.1320   -6.8260   43.1450   C 0  0  0  0  0  0  0  0  0  0  0  0
   15.7160   -7.1620   42.5200   C 0  0  0  0  0  0  0  0  0  0  0  0
   15.1490   -8.4690   43.0710   N 0  0  0  0  0  0  0  0  0  0  0  0
   13.7300   -8.8530   42.8120   C 0  0  0  0  0  0  0  0  0  0  0  0
   13.4810   -9.0040   41.3410   C 0  0  0  0  0  0  0  0  0  0  0  0
   12.2000   -9.6070   40.9170   N 0  0  0  0  0  0  0  0  0  0  0  0
   10.9400   -8.9230   41.3550   C 0  0  0  0  0  0  0  0  0  0  0  0
   12.2740   -9.5210   39.4320   C 0  0  0  0  0  0  0  0  0  0  0  0
   15.2650   -8.4810   44.5560   C 0  0  0  0  0  0  0  0  0  0  0  0
   16.6070   -8.1110   45.1500   C 0  0  0  0  0  0  0  0  0  0  0  0
   16.1320   -3.2230   44.9830   C 0  0  0  0  0  0  0  0  0  0  0  0
   16.2570   -2.1280   44.2020   N 0  0  0  0  0  0  0  0  0  0  0  0
   16.5390   -2.3220   42.7830   C 0  0  0  0  0  0  0  0  0  0  0  0
   15.2730   -2.1730   41.9170   C 0  0  0  0  0  0  0  0  0  0  0  0
   14.0180   -1.9050   42.4690   C 0  0  0  0  0  0  0  0  0  0  0  0
   12.8480   -1.7640   41.7170   C 0  0  0  0  0  0  0  0  0  0  0  0
   11.2600   -1.4190   42.5540  Cl 0  0  0  0  0  0  0  0  0  0  0  0
   15.3540   -2.3270   40.5370   C 0  0  0  0  0  0  0  0  0  0  0  0
   14.1970   -2.1890   39.7600   C 0  0  0  0  0  0  0  0  0  0  0  0
   12.9650   -1.9090   40.3440   C 0  0  0  0  0  0  0  0  0  0  0  0
 26 24  1  0  0  0  0
 37 38  2  0  0  0  0
 37 36  1  0  0  0  0
 38 34  1  0  0  0  0
 36 32  2  0  0  0  0
 24 23  1  0  0  0  0
 24 25  1  0  0  0  0
 23 22  1  0  0  0  0
 34 33  2  0  0  0  0
 34 35  1  0  0  0  0
 32 33  1  0  0  0  0
 32 31  1  0  0  0  0
 20 21  1  0  0  0  0
 20 19  1  0  0  0  0
 31 30  1  0  0  0  0
 22 21  1  0  0  0  0
 21 27  1  0  0  0  0
 19 18  1  0  0  0  0
 30 29  1  0  0  0  0
  2 29  2  0  0  0  0
  2 17  1  0  0  0  0
 27 28  1  0  0  0  0
 18 28  1  0  0  0  0
 18 17  1  0  0  0  0
 29 15  1  0  0  0  0
 17  1  2  0  0  0  0
 15 14  2  0  0  0  0
 15 16  1  0  0  0  0
  1 16  1  0  0  0  0
 14  8  1  0  0  0  0
 16 10  2  0  0  0  0
  8  5  1  0  0  0  0
  8  9  2  0  0  0  0
  4  5  1  0  0  0  0
  4  3  2  0  0  0  0
 10  9  1  0  0  0  0
  5  6  2  0  0  0  0
  3 12  1  0  0  0  0
  6 13  1  0  0  0  0
 12 13  1  0  0  0  0
 12 11  2  0  0  0  0
 13  7  1  0  0  0  0
M  END
>  <InstanceId>
6E4A_HRY_A_201

>  <ChemCompId>
HRY

>  <PdbId>
6E4A

>  <ChainId>
A

>  <ResidueNumber>
201

>  <InsertionCode>


>  <Model>
1

>  <AltIds>


>  <MissingHeavyAtoms>
0

>  <ObservedFormula>
C29 N7 O Cl

>  <Name>
5-(4-{[(3-chlorophenyl)methyl]amino}-2-{4-[2-(dimethylamino)ethyl]piperazin-1-yl}quinazolin-6-yl)-1-methylpyridin-2(1H)-one

>  <SystematicName>
5-[4-[(3-chlorophenyl)methylamino]-2-[4-[2-(dimethylamino)ethyl]piperazin-1-yl]quinazolin-6-yl]-1-methyl-pyridin-2-one

>  <Synonyms>


>  <Type>
NON-POLYMER

>  <Formula>
C29 H34 Cl N7 O

>  <MolecularWeight>
532.08

>  <ModifiedDate>
2018-09-07

>  <Parent>


>  <OneLetterCode>


>  <SubcomponentList>


>  <AmbiguousFlag>
N

>  <InChI>
InChI=1S/C29H34ClN7O/c1-34(2)11-12-36-13-15-37(16-14-36)29-32-26-9-7-22(23-8-10-27(38)35(3)20-23)18-25(26)28(33-29)31-19-21-5-4-6-24(30)17-21/h4-10,17-18,20H,11-16,19H2,1-3H3,(H,31,32,33)

>  <InChIKey>
POKZINYHLOHGEB-UHFFFAOYSA-N

>  <SMILES>
CN1C=C(C=CC1=O)c2ccc3c(c2)c(nc(n3)N4CCN(CC4)CCN(C)C)NCc5cccc(c5)Cl

$$$$
