4NKT_2KH_A_401
  RCSB PDB08012022383D
Coordinates from PDB:4NKT:A:401 Model:1 without hydrogens
 29 30  0  0  0  0            999 V2000
   63.6670   19.2900   93.6550   P 0  0  0  0  0  0  0  0  0  0  0  0
   65.0990   18.8440   94.1920   O 0  0  0  0  0  0  0  0  0  0  0  0
   62.8440   19.7890   94.8050   O 0  0  0  0  0  0  0  0  0  0  0  0
   62.9310   18.0020   92.9080   N 0  0  0  0  0  0  0  0  0  0  0  0
   63.9070   20.4890   92.6320   O 0  0  0  0  0  0  0  0  0  0  0  0
   61.5380   17.4750   93.6130   P 0  0  0  0  0  0  0  0  0  0  0  0
   60.6270   18.6880   94.0670   O 0  0  0  0  0  0  0  0  0  0  0  0
   60.8360   16.7370   92.5270   O 0  0  0  0  0  0  0  0  0  0  0  0
   61.7110   16.3910   94.7960   O 0  0  0  0  0  0  0  0  0  0  0  0
   61.6050   16.6820   96.3400   P 0  0  0  0  0  0  0  0  0  0  0  0
   60.3740   16.1090   96.8020   O 0  0  0  0  0  0  0  0  0  0  0  0
   61.6170   18.1410   96.6620   O 0  0  0  0  0  0  0  0  0  0  0  0
   62.7430   16.0420   97.0820   O 0  0  0  0  0  0  0  0  0  0  0  0
   62.8670   20.9490   91.7790   C 0  0  0  0  0  0  0  0  0  0  0  0
   63.2620   21.8670   90.7040   C 0  0  0  0  0  0  0  0  0  0  0  0
   63.8890   23.0500   91.2240   O 0  0  0  0  0  0  0  0  0  0  0  0
   64.9530   23.3870   90.3610   C 0  0  0  0  0  0  0  0  0  0  0  0
   64.8730   22.4230   89.2540   C 0  0  0  0  0  0  0  0  0  0  0  0
   64.0450   22.8760   88.2140   O 0  0  0  0  0  0  0  0  0  0  0  0
   64.2730   21.2570   89.8760   C 0  0  0  0  0  0  0  0  0  0  0  0
   63.7100   20.3410   88.9530   O 0  0  0  0  0  0  0  0  0  0  0  0
   66.2180   23.3130   91.0300   N 0  0  0  0  0  0  0  0  0  0  0  0
   66.3670   22.5720   92.1720   C 0  0  0  0  0  0  0  0  0  0  0  0
   67.2990   23.9780   90.5080   C 0  0  0  0  0  0  0  0  0  0  0  0
   67.1580   24.6730   89.4300   O 0  0  0  0  0  0  0  0  0  0  0  0
   68.5020   23.9200   91.1020   N 0  0  0  0  0  0  0  0  0  0  0  0
   68.6980   23.2050   92.2230   C 0  0  0  0  0  0  0  0  0  0  0  0
   69.9420   23.1390   92.8210   O 0  0  0  0  0  0  0  0  0  0  0  0
   67.6050   22.4930   92.8070   C 0  0  0  0  0  0  0  0  0  0  0  0
 19 18  1  0  0  0  0
 21 20  1  0  0  0  0
 18 20  1  0  0  0  0
 18 17  1  0  0  0  0
 25 24  2  0  0  0  0
 20 15  1  0  0  0  0
 17 22  1  0  0  0  0
 17 16  1  0  0  0  0
 24 22  1  0  0  0  0
 24 26  1  0  0  0  0
 15 16  1  0  0  0  0
 15 14  1  0  0  0  0
 22 23  1  0  0  0  0
 26 27  1  0  0  0  0
 14  5  1  0  0  0  0
 23 29  2  0  0  0  0
 27 29  1  0  0  0  0
 27 28  2  0  0  0  0
  8  6  2  0  0  0  0
  5  1  1  0  0  0  0
  4  6  1  0  0  0  0
  4  1  1  0  0  0  0
  6  7  1  0  0  0  0
  6  9  1  0  0  0  0
  1  2  2  0  0  0  0
  1  3  1  0  0  0  0
  9 10  1  0  0  0  0
 10 12  2  0  0  0  0
 10 11  1  0  0  0  0
 10 13  1  0  0  0  0
M  END
>  <InstanceId>
4NKT_2KH_A_401

>  <ChemCompId>
2KH

>  <PdbId>
4NKT

>  <ChainId>
A

>  <ResidueNumber>
401

>  <InsertionCode>


>  <Model>
1

>  <AltIds>


>  <MissingHeavyAtoms>
0

>  <ObservedFormula>
C9 N3 O14 P3

>  <Name>
5'-O-[(S)-hydroxy{[(S)-hydroxy(phosphonooxy)phosphoryl]amino}phosphoryl]uridine

>  <SystematicName>
[(2R,3S,4R,5R)-5-[2,4-bis(oxidanylidene)pyrimidin-1-yl]-3,4-bis(oxidanyl)oxolan-2-yl]methoxy-N-[oxidanyl(phosphonooxy)phosphoryl]phosphonamidic acid

>  <Synonyms>


>  <Type>
NON-POLYMER

>  <Formula>
C9 H16 N3 O14 P3

>  <MolecularWeight>
483.156

>  <ModifiedDate>
2013-12-13

>  <Parent>


>  <OneLetterCode>


>  <SubcomponentList>


>  <AmbiguousFlag>
N

>  <InChI>
InChI=1S/C9H16N3O14P3/c13-5-1-2-12(9(16)10-5)8-7(15)6(14)4(25-8)3-24-27(17,18)11-28(19,20)26-29(21,22)23/h1-2,4,6-8,14-15H,3H2,(H,10,13,16)(H2,21,22,23)(H3,11,17,18,19,20)/t4-,6-,7-,8-/m1/s1

>  <InChIKey>
OZIBFYOFLVBDIY-XVFCMESISA-N

>  <SMILES>
C1=CN(C(=O)NC1=O)[C@H]2[C@@H]([C@@H]([C@H](O2)COP(=O)(NP(=O)(O)OP(=O)(O)O)O)O)O

$$$$
