4FFS_BIG_A_301
  RCSB PDB08012021423D
Coordinates from PDB:4FFS:A:301 Model:1 without hydrogens
 23 25  0  0  0  0            999 V2000
  -37.0930  -48.8680    7.9830   C 0  0  0  0  0  0  0  0  0  0  0  0
  -35.8960  -50.3090   10.0380   C 0  0  0  0  0  0  0  0  0  0  0  0
  -35.3800  -49.0400    9.5550   C 0  0  0  0  0  0  0  0  0  0  0  0
  -34.0790  -49.8340   11.2590   C 0  0  0  0  0  0  0  0  0  0  0  0
  -34.1020  -43.4680   10.9790   O 0  0  0  0  0  0  0  0  0  0  0  0
  -35.1100  -44.4760   10.8480   C 0  0  0  0  0  0  0  0  0  0  0  0
  -35.2790  -45.2390   12.1550   C 0  0  0  0  0  0  0  0  0  0  0  0
  -36.5980  -46.0030   12.2470   C 0  0  0  0  0  0  0  0  0  0  0  0
  -37.9710  -44.9410   12.4930   S 0  0  0  0  0  0  0  0  0  0  0  0
  -37.9830  -44.7410   14.2550   C 0  0  0  0  0  0  0  0  0  0  0  0
  -39.0650  -43.7270   14.6220   C 0  0  0  0  0  0  0  0  0  0  0  0
  -39.3460  -43.6470   16.1130   C 0  0  0  0  0  0  0  0  0  0  0  0
  -38.1010  -43.3510   16.9000   C 0  0  0  0  0  0  0  0  0  0  0  0
  -34.1440  -46.2470   12.1290   C 0  0  0  0  0  0  0  0  0  0  0  0
  -33.6470  -46.2480   10.7260   N 0  0  0  0  0  0  0  0  0  0  0  0
  -34.6180  -45.5370    9.8810   C 0  0  0  0  0  0  0  0  0  0  0  0
  -33.2640  -47.5500   10.2280   C 0  0  0  0  0  0  0  0  0  0  0  0
  -35.0930  -50.7390   11.0340   N 0  0  0  0  0  0  0  0  0  0  0  0
  -37.0980  -50.8070    9.3660   C 0  0  0  0  0  0  0  0  0  0  0  0
  -37.6330  -51.9990    9.7830   N 0  0  0  0  0  0  0  0  0  0  0  0
  -35.9740  -48.3510    8.5570   N 0  0  0  0  0  0  0  0  0  0  0  0
  -34.1950  -48.7370   10.3740   C 0  0  0  0  0  0  0  0  0  0  0  0
  -37.6440  -50.0510    8.3820   N 0  0  0  0  0  0  0  0  0  0  0  0
  1 21  2  0  0  0  0
  1 23  1  0  0  0  0
  2  3  2  0  0  0  0
  2 18  1  0  0  0  0
  2 19  1  0  0  0  0
  3 21  1  0  0  0  0
  3 22  1  0  0  0  0
  4 18  1  0  0  0  0
  4 22  2  0  0  0  0
  5  6  1  0  0  0  0
  6  7  1  0  0  0  0
  6 16  1  0  0  0  0
  7  8  1  0  0  0  0
  7 14  1  0  0  0  0
  8  9  1  0  0  0  0
  9 10  1  0  0  0  0
 10 11  1  0  0  0  0
 11 12  1  0  0  0  0
 12 13  1  0  0  0  0
 14 15  1  0  0  0  0
 15 16  1  0  0  0  0
 15 17  1  0  0  0  0
 17 22  1  0  0  0  0
 19 20  1  0  0  0  0
 19 23  2  0  0  0  0
M  END
>  <InstanceId>
4FFS_BIG_A_301

>  <ChemCompId>
BIG

>  <PdbId>
4FFS

>  <ChainId>
A

>  <ResidueNumber>
301

>  <InsertionCode>


>  <Model>
1

>  <AltIds>


>  <MissingHeavyAtoms>
0

>  <ObservedFormula>
C16 N5 O S

>  <Name>
(3R,4S)-1-[(4-amino-5H-pyrrolo[3,2-d]pyrimidin-7-yl)methyl]-4-[(butylsulfanyl)methyl]pyrrolidin-3-ol

>  <SystematicName>
(1S,3R,4S)-1-[(4-amino-5H-pyrrolo[5,4-e]pyrimidin-7-yl)methyl]-4-(butylsulfanylmethyl)pyrrolidin-3-ol

>  <Synonyms>
butylthio-DADMe-Immucillin A

>  <Type>
NON-POLYMER

>  <Formula>
C16 H25 N5 O S

>  <MolecularWeight>
335.468

>  <ModifiedDate>
2011-06-04

>  <Parent>


>  <OneLetterCode>


>  <SubcomponentList>


>  <AmbiguousFlag>
N

>  <InChI>
InChI=1S/C16H25N5OS/c1-2-3-4-23-9-12-7-21(8-13(12)22)6-11-5-18-15-14(11)19-10-20-16(15)17/h5,10,12-13,18,22H,2-4,6-9H2,1H3,(H2,17,19,20)/t12-,13+/m1/s1

>  <InChIKey>
LTSUEVPGSXUJHT-OLZOCXBDSA-N

>  <SMILES>
CCCCSC[C@H]1C[N@](C[C@@H]1O)Cc2c[nH]c3c2ncnc3N

$$$$
