4AXD_ANP_A_600
  RCSB PDB08012021103D
Coordinates from PDB:4AXD:A:600 Model:1 without hydrogens
 31 33  0  0  0  0            999 V2000
  -22.0810    0.1340  -25.2910   P 0  0  0  0  0  0  0  0  0  0  0  0
  -22.9750   -1.1740  -25.0720   O 0  0  0  0  0  0  0  0  0  0  0  0
  -22.8920    1.2880  -26.0730   O 0  0  0  0  0  0  0  0  0  0  0  0
  -20.8560   -0.2770  -26.0330   O 0  0  0  0  0  0  0  0  0  0  0  0
  -20.3660    0.1990  -22.7660   P 0  0  0  0  0  0  0  0  0  0  0  0
  -20.0660   -1.2330  -22.9660   O 0  0  0  0  0  0  0  0  0  0  0  0
  -18.9790    1.0110  -22.8290   O 0  0  0  0  0  0  0  0  0  0  0  0
  -21.5580    0.8740  -23.8230   N 0  0  0  0  0  0  0  0  0  0  0  0
  -21.6900    1.7300  -20.8000   P 0  0  0  0  0  0  0  0  0  0  0  0
  -22.9680    1.9250  -21.5760   O 0  0  0  0  0  0  0  0  0  0  0  0
  -20.6550    2.8250  -20.7300   O 0  0  0  0  0  0  0  0  0  0  0  0
  -20.9820    0.3680  -21.2890   O 0  0  0  0  0  0  0  0  0  0  0  0
  -22.0360    1.2980  -19.2950   O 0  0  0  0  0  0  0  0  0  0  0  0
  -22.9210    0.2210  -19.0370   C 0  0  0  0  0  0  0  0  0  0  0  0
  -23.9350    0.6410  -17.9800   C 0  0  0  0  0  0  0  0  0  0  0  0
  -23.2550    1.0140  -16.7870   O 0  0  0  0  0  0  0  0  0  0  0  0
  -24.7540    1.8630  -18.3720   C 0  0  0  0  0  0  0  0  0  0  0  0
  -25.9100    1.5020  -19.1410   O 0  0  0  0  0  0  0  0  0  0  0  0
  -25.0560    2.5330  -17.0430   C 0  0  0  0  0  0  0  0  0  0  0  0
  -26.2320    2.0190  -16.4280   O 0  0  0  0  0  0  0  0  0  0  0  0
  -23.8760    2.1350  -16.1670   C 0  0  0  0  0  0  0  0  0  0  0  0
  -22.9190    3.2610  -16.1100   N 0  0  0  0  0  0  0  0  0  0  0  0
  -21.9720    3.5660  -17.0180   C 0  0  0  0  0  0  0  0  0  0  0  0
  -21.2850    4.6590  -16.6340   N 0  0  0  0  0  0  0  0  0  0  0  0
  -21.7950    5.0710  -15.4640   C 0  0  0  0  0  0  0  0  0  0  0  0
  -21.5290    6.1610  -14.5030   C 0  0  0  0  0  0  0  0  0  0  0  0
  -20.5630    7.0790  -14.7180   N 0  0  0  0  0  0  0  0  0  0  0  0
  -22.2980    6.2140  -13.3930   N 0  0  0  0  0  0  0  0  0  0  0  0
  -23.2830    5.3240  -13.1600   C 0  0  0  0  0  0  0  0  0  0  0  0
  -23.5760    4.3040  -13.9850   N 0  0  0  0  0  0  0  0  0  0  0  0
  -22.8760    4.1430  -15.1280   C 0  0  0  0  0  0  0  0  0  0  0  0
  1  2  2  0  0  0  0
  1  3  1  0  0  0  0
  1  4  1  0  0  0  0
  1  8  1  0  0  0  0
  5  6  2  0  0  0  0
  5  7  1  0  0  0  0
  5  8  1  0  0  0  0
  5 12  1  0  0  0  0
  9 10  2  0  0  0  0
  9 11  1  0  0  0  0
  9 12  1  0  0  0  0
  9 13  1  0  0  0  0
 13 14  1  0  0  0  0
 14 15  1  0  0  0  0
 15 16  1  0  0  0  0
 15 17  1  0  0  0  0
 16 21  1  0  0  0  0
 17 18  1  0  0  0  0
 17 19  1  0  0  0  0
 19 20  1  0  0  0  0
 19 21  1  0  0  0  0
 21 22  1  0  0  0  0
 22 23  1  0  0  0  0
 22 31  1  0  0  0  0
 23 24  2  0  0  0  0
 24 25  1  0  0  0  0
 25 26  1  0  0  0  0
 25 31  2  0  0  0  0
 26 27  1  0  0  0  0
 26 28  2  0  0  0  0
 28 29  1  0  0  0  0
 29 30  2  0  0  0  0
 30 31  1  0  0  0  0
M  END
>  <InstanceId>
4AXD_ANP_A_600

>  <ChemCompId>
ANP

>  <PdbId>
4AXD

>  <ChainId>
A

>  <ResidueNumber>
600

>  <InsertionCode>


>  <Model>
1

>  <AltIds>


>  <MissingHeavyAtoms>
0

>  <ObservedFormula>
C10 N6 O12 P3

>  <Name>
PHOSPHOAMINOPHOSPHONIC ACID-ADENYLATE ESTER

>  <SystematicName>
[[[[(2R,3S,4R,5R)-5-(6-aminopurin-9-yl)-3,4-dihydroxy-oxolan-2-yl]methoxy-hydroxy-phosphoryl]oxy-hydroxy-phosphoryl]amino]phosphonic acid

>  <Synonyms>


>  <Type>
NON-POLYMER

>  <Formula>
C10 H17 N6 O12 P3

>  <MolecularWeight>
506.196

>  <ModifiedDate>
2011-06-04

>  <Parent>


>  <OneLetterCode>


>  <SubcomponentList>


>  <AmbiguousFlag>
N

>  <InChI>
InChI=1S/C10H17N6O12P3/c11-8-5-9(13-2-12-8)16(3-14-5)10-7(18)6(17)4(27-10)1-26-31(24,25)28-30(22,23)15-29(19,20)21/h2-4,6-7,10,17-18H,1H2,(H,24,25)(H2,11,12,13)(H4,15,19,20,21,22,23)/t4-,6-,7-,10-/m1/s1

>  <InChIKey>
PVKSNHVPLWYQGJ-KQYNXXCUSA-N

>  <SMILES>
c1nc(c2c(n1)n(cn2)[C@H]3[C@@H]([C@@H]([C@H](O3)CO[P@](=O)(O)O[P@@](=O)(NP(=O)(O)O)O)O)O)N

$$$$
