3I7E_DJR_A_100
  RCSB PDB08012019183D
Coordinates from PDB:3I7E:A:100 Model:1 without hydrogens
 39 42  0  0  0  0            999 V2000
    2.2950    2.1710   10.5650   C 0  0  0  0  0  0  0  0  0  0  0  0
    0.6820    3.2600   11.9230   O 0  0  0  0  0  0  0  0  0  0  0  0
    1.6270    3.4820   10.8560   C 0  0  0  0  0  0  0  0  0  0  0  0
    2.6710    4.3860   11.2710   O 0  0  0  0  0  0  0  0  0  0  0  0
    3.9710    3.7970   11.1030   C 0  0  0  0  0  0  0  0  0  0  0  0
    3.7630    2.5140   10.3000   C 0  0  0  0  0  0  0  0  0  0  0  0
    0.5550    1.8450   12.1480   C 0  0  0  0  0  0  0  0  0  0  0  0
    1.8980    1.2460   11.7350   C 0  0  0  0  0  0  0  0  0  0  0  0
    2.8430    1.3390   12.8440   O 0  0  0  0  0  0  0  0  0  0  0  0
    3.7420    0.3230   13.0970   C 0  0  0  0  0  0  0  0  0  0  0  0
    3.7620   -0.7870   12.5420   O 0  0  0  0  0  0  0  0  0  0  0  0
    4.5940    0.7350   14.0290   N 0  0  0  0  0  0  0  0  0  0  0  0
    5.6840   -0.1040   14.5700   C 0  0  0  0  0  0  0  0  0  0  0  0
    7.0420    0.6480   14.3950   C 0  0  0  0  0  0  0  0  0  0  0  0
    7.3660    1.0410   12.9470   C 0  0  0  0  0  0  0  0  0  0  0  0
    7.7990    0.0540   12.0160   C 0  0  0  0  0  0  0  0  0  0  0  0
    8.0890    0.4150   10.6800   C 0  0  0  0  0  0  0  0  0  0  0  0
    7.9520    1.7690   10.2600   C 0  0  0  0  0  0  0  0  0  0  0  0
    7.5230    2.7570   11.1740   C 0  0  0  0  0  0  0  0  0  0  0  0
    7.2270    2.3980   12.5180   C 0  0  0  0  0  0  0  0  0  0  0  0
    5.3000   -0.4350   16.0550   C 0  0  0  0  0  0  0  0  0  0  0  0
    5.4900    0.7160   16.8910   O 0  0  0  0  0  0  0  0  0  0  0  0
    6.0830   -1.6290   16.6490   C 0  0  0  0  0  0  0  0  0  0  0  0
    5.8660   -2.8840   15.8860   N 0  0  0  0  0  0  0  0  0  0  0  0
    7.1990   -3.5630   14.9830   S 0  0  0  0  0  0  0  0  0  0  0  0
    6.4920   -4.4430   13.8830   O 0  0  0  0  0  0  0  0  0  0  0  0
    8.0210   -2.3940   14.3210   O 0  0  0  0  0  0  0  0  0  0  0  0
    8.1940   -4.5280   16.0650   C 0  0  0  0  0  0  0  0  0  0  0  0
    9.2750   -3.9340   16.7760   C 0  0  0  0  0  0  0  0  0  0  0  0
   10.0450   -4.7330   17.6570   C 0  0  0  0  0  0  0  0  0  0  0  0
    9.7400   -6.1200   17.8320   C 0  0  0  0  0  0  0  0  0  0  0  0
   10.5640   -6.8120   18.7220   O 0  0  0  0  0  0  0  0  0  0  0  0
   10.4330   -8.2230   19.0390   C 0  0  0  0  0  0  0  0  0  0  0  0
    8.6510   -6.6810   17.1060   C 0  0  0  0  0  0  0  0  0  0  0  0
    7.8800   -5.8920   16.2280   C 0  0  0  0  0  0  0  0  0  0  0  0
    4.5240   -3.5650   15.8830   C 0  0  0  0  0  0  0  0  0  0  0  0
    3.8570   -3.8080   17.2690   C 0  0  0  0  0  0  0  0  0  0  0  0
    2.3510   -4.0960   17.1840   C 0  0  0  0  0  0  0  0  0  0  0  0
    4.5080   -5.0030   17.9790   C 0  0  0  0  0  0  0  0  0  0  0  0
  1  6  1  0  0  0  0
  1  8  1  0  0  0  0
  1  3  1  0  0  0  0
  2  3  1  0  0  0  0
  2  7  1  0  0  0  0
  3  4  1  0  0  0  0
  4  5  1  0  0  0  0
  5  6  1  0  0  0  0
  7  8  1  0  0  0  0
  8  9  1  0  0  0  0
  9 10  1  0  0  0  0
 10 12  1  0  0  0  0
 10 11  2  0  0  0  0
 12 13  1  0  0  0  0
 13 14  1  0  0  0  0
 13 21  1  0  0  0  0
 14 15  1  0  0  0  0
 15 16  2  0  0  0  0
 15 20  1  0  0  0  0
 16 17  1  0  0  0  0
 17 18  2  0  0  0  0
 18 19  1  0  0  0  0
 19 20  2  0  0  0  0
 21 23  1  0  0  0  0
 21 22  1  0  0  0  0
 23 24  1  0  0  0  0
 24 25  1  0  0  0  0
 24 36  1  0  0  0  0
 25 27  2  0  0  0  0
 25 28  1  0  0  0  0
 25 26  2  0  0  0  0
 28 35  2  0  0  0  0
 28 29  1  0  0  0  0
 29 30  2  0  0  0  0
 30 31  1  0  0  0  0
 31 32  1  0  0  0  0
 31 34  2  0  0  0  0
 32 33  1  0  0  0  0
 34 35  1  0  0  0  0
 36 37  1  0  0  0  0
 37 39  1  0  0  0  0
 37 38  1  0  0  0  0
M  END
>  <InstanceId>
3I7E_DJR_A_100

>  <ChemCompId>
DJR

>  <PdbId>
3I7E

>  <ChainId>
A

>  <ResidueNumber>
100

>  <InsertionCode>


>  <Model>
1

>  <AltIds>


>  <MissingHeavyAtoms>
0

>  <ObservedFormula>
C28 N2 O8 S

>  <Name>
(3R,3AS,6AR)-HEXAHYDROFURO[2,3-B]FURAN-3-YL [(1S,2R)-1-BENZYL-2-HYDROXY-3-{ISOBUTYL[(4-METHOXYPHENYL)SULFONYL]AMINO}PROPYL]CARBAMATE

>  <SystematicName>
[(3aS,4R,6aR)-2,3,3a,4,5,6a-hexahydrofuro[3,2-d]furan-4-yl] N-[(2S,3R)-3-hydroxy-4-[(4-methoxyphenyl)sulfonyl-(2-methylpropyl)amino]-1-phenyl-butan-2-yl]carbamate

>  <Synonyms>


>  <Type>
NON-POLYMER

>  <Formula>
C28 H38 N2 O8 S

>  <MolecularWeight>
562.675

>  <ModifiedDate>
2011-06-04

>  <Parent>


>  <OneLetterCode>


>  <SubcomponentList>


>  <AmbiguousFlag>


>  <InChI>
InChI=1S/C28H38N2O8S/c1-19(2)16-30(39(33,34)22-11-9-21(35-3)10-12-22)17-25(31)24(15-20-7-5-4-6-8-20)29-28(32)38-26-18-37-27-23(26)13-14-36-27/h4-12,19,23-27,31H,13-18H2,1-3H3,(H,29,32)/t23-,24-,25+,26-,27+/m0/s1

>  <InChIKey>
BINXAIIXOUQUKC-UIPNDDLNSA-N

>  <SMILES>
CC(C)C[N@@](C[C@H]([C@H](Cc1ccccc1)NC(=O)O[C@H]2CO[C@@H]3[C@H]2CCO3)O)S(=O)(=O)c4ccc(cc4)OC

$$$$
