4EUO_ABU_A_404
  RCSB PDB08012021383D
Coordinates from PDB:4EUO:A:404 Model:1 without hydrogens
  7  6  0  0  0  0            999 V2000
    8.2130  -14.1210   10.4330   N 0  0  0  0  0  0  0  0  0  0  0  0
    6.8480  -13.5820   10.3890   C 0  0  0  0  0  0  0  0  0  0  0  0
    6.4170  -13.2690    8.9770   C 0  0  0  0  0  0  0  0  0  0  0  0
    5.0400  -12.6990    8.9940   C 0  0  0  0  0  0  0  0  0  0  0  0
    4.4130  -12.4580    7.6370   C 0  0  0  0  0  0  0  0  0  0  0  0
    3.0920  -12.3050    7.5890   O 0  0  0  0  0  0  0  0  0  0  0  0
    5.0900  -12.5180    6.5160   O 0  0  0  0  0  0  0  0  0  0  0  0
  1  2  1  0  0  0  0
  2  3  1  0  0  0  0
  3  4  1  0  0  0  0
  4  5  1  0  0  0  0
  5  6  2  0  0  0  0
  5  7  1  0  0  0  0
M  END
>  <InstanceId>
4EUO_ABU_A_404

>  <ChemCompId>
ABU

>  <PdbId>
4EUO

>  <ChainId>
A

>  <ResidueNumber>
404

>  <InsertionCode>


>  <Model>
1

>  <AltIds>


>  <MissingHeavyAtoms>
0

>  <ObservedFormula>
C4 N O2

>  <Name>
GAMMA-AMINO-BUTANOIC ACID

>  <SystematicName>
4-azanylbutanoic acid

>  <Synonyms>
GAMMA(AMINO)-BUTYRIC ACID

>  <Type>
NON-POLYMER

>  <Formula>
C4 H9 N O2

>  <MolecularWeight>
103.12

>  <ModifiedDate>
2011-06-04

>  <Parent>


>  <OneLetterCode>


>  <SubcomponentList>


>  <AmbiguousFlag>
N

>  <InChI>
InChI=1S/C4H9NO2/c5-3-1-2-4(6)7/h1-3,5H2,(H,6,7)

>  <InChIKey>
BTCSSZJGUNDROE-UHFFFAOYSA-N

>  <SMILES>
C(CC(=O)O)CN

$$$$
