3BXE_13P_A_401
  RCSB PDB08012018413D
Coordinates from PDB:3BXE:A:401 Model:1 without hydrogens
 10  9  0  0  0  0            999 V2000
  -43.0440    4.4020    4.7760   P 0  0  0  0  0  0  0  0  0  0  0  0
  -44.4530    4.5630    5.3160   O 0  0  0  0  0  0  0  0  0  0  0  0
  -41.9090    4.6880    5.7580   O 0  0  0  0  0  0  0  0  0  0  0  0
  -42.8640    5.0660    3.4200   O 0  0  0  0  0  0  0  0  0  0  0  0
  -42.8990    2.8190    4.4800   O 0  0  0  0  0  0  0  0  0  0  0  0
  -43.0600    1.8880    5.5780   C 0  0  0  0  0  0  0  0  0  0  0  0
  -42.3320    0.5840    5.3600   C 0  0  0  0  0  0  0  0  0  0  0  0
  -41.5340    0.4550    4.4390   O 0  0  0  0  0  0  0  0  0  0  0  0
  -42.6000   -0.5740    6.2970   C 0  0  0  0  0  0  0  0  0  0  0  0
  -42.0420   -1.7950    5.7660   O 0  0  0  0  0  0  0  0  0  0  0  0
  1  2  2  0  0  0  0
  1  3  1  0  0  0  0
  1  4  1  0  0  0  0
  1  5  1  0  0  0  0
  5  6  1  0  0  0  0
  6  7  1  0  0  0  0
  7  8  2  0  0  0  0
  7  9  1  0  0  0  0
  9 10  1  0  0  0  0
M  END
>  <InstanceId>
3BXE_13P_A_401

>  <ChemCompId>
13P

>  <PdbId>
3BXE

>  <ChainId>
A

>  <ResidueNumber>
401

>  <InsertionCode>


>  <Model>
1

>  <AltIds>


>  <MissingHeavyAtoms>
0

>  <ObservedFormula>
C3 O6 P

>  <Name>
1,3-DIHYDROXYACETONEPHOSPHATE

>  <SystematicName>
(3-hydroxy-2-oxo-propyl) dihydrogen phosphate

>  <Synonyms>


>  <Type>
NON-POLYMER

>  <Formula>
C3 H7 O6 P

>  <MolecularWeight>
170.058

>  <ModifiedDate>
2011-06-04

>  <Parent>


>  <OneLetterCode>


>  <SubcomponentList>


>  <AmbiguousFlag>
N

>  <InChI>
InChI=1S/C3H7O6P/c4-1-3(5)2-9-10(6,7)8/h4H,1-2H2,(H2,6,7,8)

>  <InChIKey>
GNGACRATGGDKBX-UHFFFAOYSA-N

>  <SMILES>
C(C(=O)COP(=O)(O)O)O

$$$$
