4AYQ_MVL_A_503
  RCSB PDB08012021103D
Coordinates from PDB:4AYQ:A:503 Model:1 without hydrogens
 14 15  0  0  0  0            999 V2000
    2.8400  -31.8050  -19.8990   C 0  0  0  0  0  0  0  0  0  0  0  0
    4.1660  -31.9290  -19.7440   N 0  0  0  0  0  0  0  0  0  0  0  0
    2.7330  -30.0420  -18.2030   C 0  0  0  0  0  0  0  0  0  0  0  0
    4.2090  -29.7600  -18.5240   C 0  0  0  0  0  0  0  0  0  0  0  0
    5.0020  -30.9950  -18.9290   C 0  0  0  0  0  0  0  0  0  0  0  0
    5.5160  -31.7260  -17.6830   C 0  0  0  0  0  0  0  0  0  0  0  0
    3.4990  -33.6170  -20.9670   C 0  0  0  0  0  0  0  0  0  0  0  0
    4.5820  -33.0430  -20.4070   C 0  0  0  0  0  0  0  0  0  0  0  0
    2.4410  -32.8390  -20.6410   N 0  0  0  0  0  0  0  0  0  0  0  0
    2.6140  -30.9240  -17.0920   O 0  0  0  0  0  0  0  0  0  0  0  0
    0.7300  -31.0920  -18.9740   O 0  0  0  0  0  0  0  0  0  0  0  0
    4.2840  -28.8170  -19.5920   O 0  0  0  0  0  0  0  0  0  0  0  0
    2.0270  -30.6760  -19.3810   C 0  0  0  0  0  0  0  0  0  0  0  0
    6.2480  -32.9080  -18.0070   O 0  0  0  0  0  0  0  0  0  0  0  0
  1  2  1  0  0  0  0
  1  9  2  0  0  0  0
  1 13  1  0  0  0  0
  2  5  1  0  0  0  0
  2  8  1  0  0  0  0
  3  4  1  0  0  0  0
  3 10  1  0  0  0  0
  3 13  1  0  0  0  0
  4  5  1  0  0  0  0
  4 12  1  0  0  0  0
  5  6  1  0  0  0  0
  6 14  1  0  0  0  0
  7  8  2  0  0  0  0
  7  9  1  0  0  0  0
 11 13  1  0  0  0  0
M  END
>  <InstanceId>
4AYQ_MVL_A_503

>  <ChemCompId>
MVL

>  <PdbId>
4AYQ

>  <ChainId>
A

>  <ResidueNumber>
503

>  <InsertionCode>


>  <Model>
1

>  <AltIds>


>  <MissingHeavyAtoms>
0

>  <ObservedFormula>
C8 N2 O4

>  <Name>
(5R,6R,7S,8R)-5-(HYDROXYMETHYL)-5,6,7,8-TETRAHYDROIMIDAZO[1,2-A]PYRIDINE-6,7,8-TRIOL

>  <SystematicName>
(5R,6R,7S,8R)-5-(hydroxymethyl)-5,6,7,8-tetrahydroimidazo[1,2-a]pyridine-6,7,8-triol

>  <Synonyms>
Mannoimidazole

>  <Type>
non-polymer

>  <Formula>
C8 H12 N2 O4

>  <MolecularWeight>
200.192

>  <ModifiedDate>
2020-06-17

>  <Parent>


>  <OneLetterCode>


>  <SubcomponentList>


>  <AmbiguousFlag>
N

>  <InChI>
InChI=1S/C8H12N2O4/c11-3-4-5(12)6(13)7(14)8-9-1-2-10(4)8/h1-2,4-7,11-14H,3H2/t4-,5-,6+,7+/m1/s1

>  <InChIKey>
RZRDQZQPTISYKY-JWXFUTCRSA-N

>  <SMILES>
c1cn2c(n1)[C@H]([C@H]([C@@H]([C@H]2CO)O)O)O

$$$$
