5LOM_SNW_A_301
  RCSB PDB08022002143D
Coordinates from PDB:5LOM:A:301 Model:1 without hydrogens
 21 21  0  0  0  0            999 V2000
   39.5530  -64.3620   32.5440   O 0  0  0  0  0  0  0  0  0  0  0  0
   40.8780  -64.3320   33.1140   C 0  0  0  0  0  0  0  0  0  0  0  0
   40.9740  -63.4760   34.2920   C 0  0  0  0  0  0  0  0  0  0  0  0
   40.5500  -62.1030   33.8660   O 0  0  0  0  0  0  0  0  0  0  0  0
   42.2980  -63.4210   34.8770   C 0  0  0  0  0  0  0  0  0  0  0  0
   43.2310  -62.7010   34.0500   O 0  0  0  0  0  0  0  0  0  0  0  0
   42.8410  -64.8390   35.1320   C 0  0  0  0  0  0  0  0  0  0  0  0
   42.7710  -65.6300   33.9420   O 0  0  0  0  0  0  0  0  0  0  0  0
   41.4390  -65.7220   33.4240   C 0  0  0  0  0  0  0  0  0  0  0  0
   40.5890  -66.2780   34.3420   O 0  0  0  0  0  0  0  0  0  0  0  0
   41.5150  -66.5720   32.1550   C 0  0  0  0  0  0  0  0  0  0  0  0
   42.1390  -67.8860   32.4250   N 0  0  0  0  0  0  0  0  0  0  0  0
   42.0070  -68.7950   31.2730   C 0  0  0  0  0  0  0  0  0  0  0  0
   40.7110  -69.5570   31.3980   C 0  0  0  0  0  0  0  0  0  0  0  0
   40.3300  -70.3360   30.4690   O 0  0  0  0  0  0  0  0  0  0  0  0
   43.1280  -69.8350   31.2700   C 0  0  0  0  0  0  0  0  0  0  0  0
   43.3500  -70.5340   32.5910   C 0  0  0  0  0  0  0  0  0  0  0  0
   44.4480  -71.5550   32.6350   C 0  0  0  0  0  0  0  0  0  0  0  0
   44.9040  -72.0020   31.6030   O 0  0  0  0  0  0  0  0  0  0  0  0
   44.9560  -72.0140   33.8770   N 0  0  0  0  0  0  0  0  0  0  0  0
   40.0380  -69.4200   32.4440   O 0  0  0  0  0  0  0  0  0  0  0  0
  7  5  1  0  0  0  0
  7  8  1  0  0  0  0
  5  3  1  0  0  0  0
  5  6  1  0  0  0  0
  3  4  1  0  0  0  0
  3  2  1  0  0  0  0
 10  9  1  0  0  0  0
  8  9  1  0  0  0  0
 20 18  1  0  0  0  0
  9  2  1  0  0  0  0
  9 11  1  0  0  0  0
  2  1  1  0  0  0  0
 18 17  1  0  0  0  0
 18 19  2  0  0  0  0
 17 16  1  0  0  0  0
 15 14  2  0  0  0  0
 12 11  1  0  0  0  0
 12 13  1  0  0  0  0
 14 13  1  0  0  0  0
 14 21  1  0  0  0  0
 13 16  1  0  0  0  0
M  END
>  <InstanceId>
5LOM_SNW_A_301

>  <ChemCompId>
SNW

>  <PdbId>
5LOM

>  <ChainId>
A

>  <ResidueNumber>
301

>  <InsertionCode>


>  <Model>
1

>  <AltIds>


>  <MissingHeavyAtoms>
0

>  <ObservedFormula>
C11 N2 O8

>  <Name>
Deoxyfructosylglutamine

>  <SystematicName>
(2~{S})-5-azanyl-5-oxidanylidene-2-[[(2~{R},3~{S},4~{R},5~{R})-2,3,4,5-tetrakis(oxidanyl)oxan-2-yl]methylamino]pentanoic acid

>  <Synonyms>
santhopine

>  <Type>
NON-POLYMER

>  <Formula>
C11 H20 N2 O8

>  <MolecularWeight>
308.285

>  <ModifiedDate>
2020-06-17

>  <Parent>


>  <OneLetterCode>


>  <SubcomponentList>


>  <AmbiguousFlag>
N

>  <InChI>
InChI=1S/C11H20N2O8/c12-7(15)2-1-5(10(18)19)13-4-11(20)9(17)8(16)6(14)3-21-11/h5-6,8-9,13-14,16-17,20H,1-4H2,(H2,12,15)(H,18,19)/t5-,6+,8+,9-,11+/m0/s1

>  <InChIKey>
SNIATPDKUZZXAT-VISRLPHGSA-N

>  <SMILES>
C1[C@H]([C@H]([C@@H]([C@](O1)(CN[C@@H](CCC(=O)N)C(=O)O)O)O)O)O

$$$$
