5NY1_9E5_A_302
  RCSB PDB08022002363D
Coordinates from PDB:5NY1:A:302 Model:1 without hydrogens
 26 28  0  0  0  0            999 V2000
    2.1650   11.1330   13.0820   C 0  0  0  0  0  0  0  0  0  0  0  0
    1.0210   10.3460   13.1950   C 0  0  0  0  0  0  0  0  0  0  0  0
   -0.1240   10.3850   14.0000   C 0  0  0  0  0  0  0  0  0  0  0  0
    1.5350    7.6340   10.5670   C 0  0  0  0  0  0  0  0  0  0  0  0
   -0.8900    9.3060   13.6100   C 0  0  0  0  0  0  0  0  0  0  0  0
    0.8460    9.2300   12.3830   C 0  0  0  0  0  0  0  0  0  0  0  0
    1.7830    8.8580   11.4190   C 0  0  0  0  0  0  0  0  0  0  0  0
   -2.2000    8.8600   14.0920   C 0  0  0  0  0  0  0  0  0  0  0  0
    3.1160   10.7680   12.1280   C 0  0  0  0  0  0  0  0  0  0  0  0
   -7.3510    2.6900   16.6880   O 0  0  0  0  0  0  0  0  0  0  0  0
   -5.9160    2.6290   16.8020   S 0  0  0  0  0  0  0  0  0  0  0  0
   -5.3600    2.7570   18.1140   O 0  0  0  0  0  0  0  0  0  0  0  0
   -5.3430    1.3180   16.1000   N 0  0  0  0  0  0  0  0  0  0  0  0
   -5.3410    3.9790   15.9580   C 0  0  0  0  0  0  0  0  0  0  0  0
   -6.2000    5.0140   15.5310   C 0  0  0  0  0  0  0  0  0  0  0  0
   -5.7560    6.1280   14.8390   C 0  0  0  0  0  0  0  0  0  0  0  0
   -3.9730    4.1690   15.6710   C 0  0  0  0  0  0  0  0  0  0  0  0
   -3.5230    5.3050   14.9720   C 0  0  0  0  0  0  0  0  0  0  0  0
   -4.4210    6.3010   14.5410   C 0  0  0  0  0  0  0  0  0  0  0  0
   -4.1620    7.5580   13.7490   C 0  0  0  0  0  0  0  0  0  0  0  0
   -2.7840    7.8470   13.4520   N 0  0  0  0  0  0  0  0  0  0  0  0
   -2.7350    9.4770   15.0080   O 0  0  0  0  0  0  0  0  0  0  0  0
   -0.3390   11.4590   15.0310   C 0  0  0  0  0  0  0  0  0  0  0  0
   -0.2890    8.5930   12.6240   O 0  0  0  0  0  0  0  0  0  0  0  0
    2.9410    9.6430   11.3000   C 0  0  0  0  0  0  0  0  0  0  0  0
    4.0430    9.3460   10.3040   C 0  0  0  0  0  0  0  0  0  0  0  0
 26 25  1  0  0  0  0
  4  7  1  0  0  0  0
 25  7  2  0  0  0  0
 25  9  1  0  0  0  0
  7  6  1  0  0  0  0
  9  1  2  0  0  0  0
  6 24  1  0  0  0  0
  6  2  2  0  0  0  0
 24  5  1  0  0  0  0
  1  2  1  0  0  0  0
  2  3  1  0  0  0  0
 21 20  1  0  0  0  0
 21  8  1  0  0  0  0
  5  3  2  0  0  0  0
  5  8  1  0  0  0  0
 20 19  1  0  0  0  0
  3 23  1  0  0  0  0
  8 22  2  0  0  0  0
 19 16  2  0  0  0  0
 19 18  1  0  0  0  0
 16 15  1  0  0  0  0
 18 17  2  0  0  0  0
 15 14  2  0  0  0  0
 17 14  1  0  0  0  0
 14 11  1  0  0  0  0
 13 11  1  0  0  0  0
 10 11  2  0  0  0  0
 11 12  2  0  0  0  0
M  END
>  <InstanceId>
5NY1_9E5_A_302

>  <ChemCompId>
9E5

>  <PdbId>
5NY1

>  <ChainId>
A

>  <ResidueNumber>
302

>  <InsertionCode>


>  <Model>
1

>  <AltIds>


>  <MissingHeavyAtoms>
0

>  <ObservedFormula>
C19 N2 O4 S

>  <Name>
3,6,7-trimethyl-~{N}-[(4-sulfamoylphenyl)methyl]-1-benzofuran-2-carboxamide

>  <SystematicName>
3,6,7-trimethyl-~{N}-[(4-sulfamoylphenyl)methyl]-1-benzofuran-2-carboxamide

>  <Synonyms>


>  <Type>
NON-POLYMER

>  <Formula>
C19 H20 N2 O4 S

>  <MolecularWeight>
372.438

>  <ModifiedDate>
2018-01-12

>  <Parent>


>  <OneLetterCode>


>  <SubcomponentList>


>  <AmbiguousFlag>
N

>  <InChI>
InChI=1S/C19H20N2O4S/c1-11-4-9-16-13(3)18(25-17(16)12(11)2)19(22)21-10-14-5-7-15(8-6-14)26(20,23)24/h4-9H,10H2,1-3H3,(H,21,22)(H2,20,23,24)

>  <InChIKey>
UTFNKOUSVJRLOG-UHFFFAOYSA-N

>  <SMILES>
Cc1ccc2c(c(oc2c1C)C(=O)NCc3ccc(cc3)S(=O)(=O)N)C

$$$$
