2Z1W_BDI_A_600
  RCSB PDB08012018253D
Coordinates from PDB:2Z1W:A:600 Model:1 without hydrogens
 15 16  0  0  0  0            999 V2000
   15.3260   16.8160   20.5860   N 0  0  0  0  0  0  0  0  0  0  0  0
   16.4920   17.0800   19.9530   C 0  0  0  0  0  0  0  0  0  0  0  0
   16.6780   17.0770   18.4640   C 0  0  0  0  0  0  0  0  0  0  0  0
   16.4440   18.4620   17.8730   C 0  0  0  0  0  0  0  0  0  0  0  0
   16.6170   18.3760   16.3400   C 0  0  0  0  0  0  0  0  0  0  0  0
   16.2990   19.7140   15.7300   C 0  0  0  0  0  0  0  0  0  0  0  0
   17.4820   17.3890   20.7740   N 0  0  0  0  0  0  0  0  0  0  0  0
   16.9880   17.3380   22.0080   C 0  0  0  0  0  0  0  0  0  0  0  0
   17.6070   17.5830   23.3510   C 0  0  0  0  0  0  0  0  0  0  0  0
   16.7740   17.4320   24.3990   N 0  0  0  0  0  0  0  0  0  0  0  0
   15.4090   17.0720   24.3030   N 0  0  0  0  0  0  0  0  0  0  0  0
   14.7680   16.8290   23.1140   C 0  0  0  0  0  0  0  0  0  0  0  0
   13.6020   16.5220   23.0620   O 0  0  0  0  0  0  0  0  0  0  0  0
   15.5740   16.9620   21.8890   C 0  0  0  0  0  0  0  0  0  0  0  0
   18.8010   17.8980   23.4150   O 0  0  0  0  0  0  0  0  0  0  0  0
  1  2  2  0  0  0  0
  1 14  1  0  0  0  0
  2  3  1  0  0  0  0
  2  7  1  0  0  0  0
  3  4  1  0  0  0  0
  4  5  1  0  0  0  0
  5  6  1  0  0  0  0
  7  8  1  0  0  0  0
  8  9  1  0  0  0  0
  8 14  2  0  0  0  0
  9 10  1  0  0  0  0
  9 15  2  0  0  0  0
 10 11  1  0  0  0  0
 11 12  1  0  0  0  0
 12 13  2  0  0  0  0
 12 14  1  0  0  0  0
M  END
>  <InstanceId>
2Z1W_BDI_A_600

>  <ChemCompId>
BDI

>  <PdbId>
2Z1W

>  <ChainId>
A

>  <ResidueNumber>
600

>  <InsertionCode>


>  <Model>
1

>  <AltIds>


>  <MissingHeavyAtoms>
0

>  <ObservedFormula>
C9 N4 O2

>  <Name>
2-BUTYL-5,6-DIHYDRO-1H-IMIDAZO[4,5-D]PYRIDAZINE-4,7-DIONE

>  <SystematicName>
2-butyl-5,6-dihydro-1H-imidazo[4,5-d]pyridazine-4,7-dione

>  <Synonyms>


>  <Type>
NON-POLYMER

>  <Formula>
C9 H12 N4 O2

>  <MolecularWeight>
208.217

>  <ModifiedDate>
2011-06-04

>  <Parent>


>  <OneLetterCode>


>  <SubcomponentList>


>  <AmbiguousFlag>
N

>  <InChI>
InChI=1S/C9H12N4O2/c1-2-3-4-5-10-6-7(11-5)9(15)13-12-8(6)14/h2-4H2,1H3,(H,10,11)(H,12,14)(H,13,15)

>  <InChIKey>
DQHJYYALMHIEAH-UHFFFAOYSA-N

>  <SMILES>
CCCCc1[nH]c2c(n1)C(=O)NNC2=O

$$$$
