5E28_BC5_A_302
  RCSB PDB08022001103D
Coordinates from PDB:5E28:A:302 Model:1 without hydrogens
 17 18  0  0  0  0            999 V2000
   -5.9570    0.8810   16.5850   S 0  0  0  0  0  0  0  0  0  0  0  0
   -5.4610   -0.4620   15.8480   N 0  0  0  0  0  0  0  0  0  0  0  0
   -7.3410    1.0690   16.2500   O 0  0  0  0  0  0  0  0  0  0  0  0
   -5.5850    0.7740   17.9680   O 0  0  0  0  0  0  0  0  0  0  0  0
   -5.0520    2.2350   15.8920   C 0  0  0  0  0  0  0  0  0  0  0  0
   -5.7160    3.4000   15.5260   C 0  0  0  0  0  0  0  0  0  0  0  0
   -5.0050    4.4630   14.9820   C 0  0  0  0  0  0  0  0  0  0  0  0
   -3.6300    4.3620   14.8040   C 0  0  0  0  0  0  0  0  0  0  0  0
   -2.9660    3.1970   15.1710   C 0  0  0  0  0  0  0  0  0  0  0  0
   -3.6770    2.1330   15.7150   C 0  0  0  0  0  0  0  0  0  0  0  0
   -2.8700    5.4990   14.2220   C 0  0  0  0  0  0  0  0  0  0  0  0
   -1.9610    5.2750   13.1940   C 0  0  0  0  0  0  0  0  0  0  0  0
   -1.2510    6.3380   12.6500   C 0  0  0  0  0  0  0  0  0  0  0  0
   -1.4480    7.6260   13.1340   C 0  0  0  0  0  0  0  0  0  0  0  0
   -2.3570    7.8510   14.1620   C 0  0  0  0  0  0  0  0  0  0  0  0
   -3.0680    6.7870   14.7060   C 0  0  0  0  0  0  0  0  0  0  0  0
   -0.7420    8.6820   12.5940   N 0  0  0  0  0  0  0  0  0  0  0  0
 17 14  1  0  0  0  0
 13 14  2  0  0  0  0
 13 12  1  0  0  0  0
 14 15  1  0  0  0  0
 12 11  2  0  0  0  0
 15 16  2  0  0  0  0
 11 16  1  0  0  0  0
 11  8  1  0  0  0  0
  8  7  2  0  0  0  0
  8  9  1  0  0  0  0
  7  6  1  0  0  0  0
  9 10  2  0  0  0  0
  6  5  2  0  0  0  0
 10  5  1  0  0  0  0
  2  1  1  0  0  0  0
  5  1  1  0  0  0  0
  3  1  2  0  0  0  0
  1  4  2  0  0  0  0
M  END
>  <InstanceId>
5E28_BC5_A_302

>  <ChemCompId>
BC5

>  <PdbId>
5E28

>  <ChainId>
A

>  <ResidueNumber>
302

>  <InsertionCode>


>  <Model>
1

>  <AltIds>


>  <MissingHeavyAtoms>
0

>  <ObservedFormula>
C12 N2 O2 S

>  <Name>
4'-aminobiphenyl-4-sulfonamide

>  <SystematicName>
4-(4-aminophenyl)benzenesulfonamide

>  <Synonyms>


>  <Type>
NON-POLYMER

>  <Formula>
C12 H12 N2 O2 S

>  <MolecularWeight>
248.301

>  <ModifiedDate>
2016-01-15

>  <Parent>


>  <OneLetterCode>


>  <SubcomponentList>


>  <AmbiguousFlag>
N

>  <InChI>
InChI=1S/C12H12N2O2S/c13-11-5-1-9(2-6-11)10-3-7-12(8-4-10)17(14,15)16/h1-8H,13H2,(H2,14,15,16)

>  <InChIKey>
OFWFFDCOBHXZME-UHFFFAOYSA-N

>  <SMILES>
c1cc(ccc1c2ccc(cc2)S(=O)(=O)N)N

$$$$
