1HMS_OLA_A_133
  RCSB PDB08012015043D
Coordinates from PDB:1HMS:A:133 Model:1 without hydrogens
 20 19  0  0  0  0            999 V2000
   19.0300   33.3380   52.4920   C 0  0  0  0  0  0  0  0  0  0  0  0
   18.3210   32.3340   52.4110   O 0  0  0  0  0  0  0  0  0  0  0  0
   19.0140   34.4160   51.9100   O 0  0  0  0  0  0  0  0  0  0  0  0
   20.0020   33.2660   53.5770   C 0  0  0  0  0  0  0  0  0  0  0  0
   20.6000   34.5030   54.1250   C 0  0  0  0  0  0  0  0  0  0  0  0
   21.8030   34.2750   55.0600   C 0  0  0  0  0  0  0  0  0  0  0  0
   22.3410   35.6020   55.5610   C 0  0  0  0  0  0  0  0  0  0  0  0
   23.5690   35.5340   56.4000   C 0  0  0  0  0  0  0  0  0  0  0  0
   23.5370   34.5310   57.5140   C 0  0  0  0  0  0  0  0  0  0  0  0
   22.6930   35.0320   58.6870   C 0  0  0  0  0  0  0  0  0  0  0  0
   22.6420   34.0520   59.8040   C 0  0  0  0  0  0  0  0  0  0  0  0
   21.7210   34.1380   60.8600   C 0  0  0  0  0  0  0  0  0  0  0  0
   20.7780   35.2360   61.0590   C 0  0  0  0  0  0  0  0  0  0  0  0
   19.3360   34.9930   60.9030   C 0  0  0  0  0  0  0  0  0  0  0  0
   18.9230   34.6100   59.4960   C 0  0  0  0  0  0  0  0  0  0  0  0
   17.5060   34.0840   59.4840   C 0  0  0  0  0  0  0  0  0  0  0  0
   16.7310   34.5080   58.2780   C 0  0  0  0  0  0  0  0  0  0  0  0
   17.3270   35.6680   57.5660   C 0  0  0  0  0  0  0  0  0  0  0  0
   16.3040   36.4260   56.7320   C 0  0  0  0  0  0  0  0  0  0  0  0
   16.7280   37.8920   56.6480   C 0  0  0  0  0  0  0  0  0  0  0  0
  1  2  2  0  0  0  0
  1  3  1  0  0  0  0
  1  4  1  0  0  0  0
  4  5  1  0  0  0  0
  5  6  1  0  0  0  0
  6  7  1  0  0  0  0
  7  8  1  0  0  0  0
  8  9  1  0  0  0  0
  9 10  1  0  0  0  0
 10 11  1  0  0  0  0
 11 12  2  0  0  0  0
 12 13  1  0  0  0  0
 13 14  1  0  0  0  0
 14 15  1  0  0  0  0
 15 16  1  0  0  0  0
 16 17  1  0  0  0  0
 17 18  1  0  0  0  0
 18 19  1  0  0  0  0
 19 20  1  0  0  0  0
M  END
>  <InstanceId>
1HMS_OLA_A_133

>  <ChemCompId>
OLA

>  <PdbId>
1HMS

>  <ChainId>
A

>  <ResidueNumber>
133

>  <InsertionCode>


>  <Model>
1

>  <AltIds>


>  <MissingHeavyAtoms>
0

>  <ObservedFormula>
C18 O2

>  <Name>
OLEIC ACID

>  <SystematicName>
(Z)-octadec-9-enoic acid

>  <Synonyms>


>  <Type>
NON-POLYMER

>  <Formula>
C18 H34 O2

>  <MolecularWeight>
282.461

>  <ModifiedDate>
2011-06-04

>  <Parent>


>  <OneLetterCode>


>  <SubcomponentList>


>  <AmbiguousFlag>
N

>  <InChI>
InChI=1S/C18H34O2/c1-2-3-4-5-6-7-8-9-10-11-12-13-14-15-16-17-18(19)20/h9-10H,2-8,11-17H2,1H3,(H,19,20)/b10-9-

>  <InChIKey>
ZQPPMHVWECSIRJ-KTKRTIGZSA-N

>  <SMILES>
CCCCCCCC\C=C/CCCCCCCC(=O)O

$$$$
