6B4N_G53_A_201
  RCSB PDB08022004003D
Coordinates from PDB:6B4N:A:201 Model:1 without hydrogens
 46 50  0  0  0  0            999 V2000
   21.4010   27.5510   15.0370   C 0  0  0  0  0  0  0  0  0  0  0  0
   20.0450   27.7630   14.7640   C 0  0  0  0  0  0  0  0  0  0  0  0
   19.0900   26.7710   15.0010   C 0  0  0  0  0  0  0  0  0  0  0  0
   19.4900   25.5450   15.4660   C 0  0  0  0  0  0  0  0  0  0  0  0
   20.8340   25.3230   15.7560   C 0  0  0  0  0  0  0  0  0  0  0  0
   21.7890   26.2920   15.4990   C 0  0  0  0  0  0  0  0  0  0  0  0
   18.3520   24.2450   15.8920   S 0  0  0  0  0  0  0  0  0  0  0  0
   17.2340   24.3030   14.9080   O 0  0  0  0  0  0  0  0  0  0  0  0
   19.1330   23.0220   16.0040   O 0  0  0  0  0  0  0  0  0  0  0  0
   17.7150   24.6070   17.3520   N 0  0  0  0  0  0  0  0  0  0  0  0
   18.6560   24.7670   18.4270   C 0  0  0  0  0  0  0  0  0  0  0  0
   18.3260   24.0620   19.7650   C 0  0  0  0  0  0  0  0  0  0  0  0
   18.3020   22.5410   19.5990   C 0  0  0  0  0  0  0  0  0  0  0  0
   19.3060   24.5250   20.8320   C 0  0  0  0  0  0  0  0  0  0  0  0
   16.4130   25.2580   17.3710   C 0  0  0  0  0  0  0  0  0  0  0  0
   15.3090   24.3110   17.9530   C 0  0  0  0  0  0  0  0  0  0  0  0
   14.1710   25.1120   18.2880   O 0  0  0  0  0  0  0  0  0  0  0  0
   14.9200   23.2000   16.9600   C 0  0  0  0  0  0  0  0  0  0  0  0
   14.0480   22.2610   17.7050   N 0  0  0  0  0  0  0  0  0  0  0  0
   14.3650   21.0200   18.0370   C 0  0  0  0  0  0  0  0  0  0  0  0
   15.4370   20.4340   17.8590   O 0  0  0  0  0  0  0  0  0  0  0  0
   13.3080   20.4240   18.7150   O 0  0  0  0  0  0  0  0  0  0  0  0
   13.4800   19.0240   18.9550   C 0  0  0  0  0  0  0  0  0  0  0  0
   12.8490   18.8300   20.3570   C 0  0  0  0  0  0  0  0  0  0  0  0
   11.4590   18.8010   20.1200   O 0  0  0  0  0  0  0  0  0  0  0  0
   11.1830   18.1890   18.8480   C 0  0  0  0  0  0  0  0  0  0  0  0
   10.2460   19.0480   18.1270   O 0  0  0  0  0  0  0  0  0  0  0  0
   10.9380   19.6880   17.0460   C 0  0  0  0  0  0  0  0  0  0  0  0
   12.1630   18.8270   16.7360   C 0  0  0  0  0  0  0  0  0  0  0  0
   12.5040   18.2040   18.0940   C 0  0  0  0  0  0  0  0  0  0  0  0
   14.1610   23.6970   15.7260   C 0  0  0  0  0  0  0  0  0  0  0  0
   12.4940   22.0840   14.6780   C 0  0  0  0  0  0  0  0  0  0  0  0
   12.1770   20.9480   13.9080   C 0  0  0  0  0  0  0  0  0  0  0  0
   13.1610   20.2430   13.2040   C 0  0  0  0  0  0  0  0  0  0  0  0
   14.4830   20.6980   13.3390   C 0  0  0  0  0  0  0  0  0  0  0  0
   14.8190   21.8310   14.1460   C 0  0  0  0  0  0  0  0  0  0  0  0
   13.8060   22.5120   14.8260   C 0  0  0  0  0  0  0  0  0  0  0  0
   22.3480   28.4970   14.9020   C 0  0  0  0  0  0  0  0  0  0  0  0
   23.6620   28.2150   14.9490   O 0  0  0  0  0  0  0  0  0  0  0  0
   24.4000   29.4040   14.8590   C 0  0  0  0  0  0  0  0  0  0  0  0
   23.5030   30.3590   14.5840   C 0  0  0  0  0  0  0  0  0  0  0  0
   22.2890   29.7880   14.6940   N 0  0  0  0  0  0  0  0  0  0  0  0
   23.8690   31.6060   14.7380   C 0  0  0  0  0  0  0  0  0  0  0  0
   23.0970   32.5530   14.9430   O 0  0  0  0  0  0  0  0  0  0  0  0
   25.2350   31.7820   14.6790   O 0  0  0  0  0  0  0  0  0  0  0  0
   25.7930   30.6750   15.4190   C 0  0  0  0  0  0  0  0  0  0  0  0
 34 35  2  0  0  0  0
 34 33  1  0  0  0  0
 35 36  1  0  0  0  0
 33 32  2  0  0  0  0
 36 37  2  0  0  0  0
 41 42  1  0  0  0  0
 41 43  1  0  0  0  0
 41 40  2  0  0  0  0
 32 37  1  0  0  0  0
 45 43  1  0  0  0  0
 45 46  1  0  0  0  0
 42 38  2  0  0  0  0
 43 44  2  0  0  0  0
  2  3  2  0  0  0  0
  2  1  1  0  0  0  0
 37 31  1  0  0  0  0
 40 39  1  0  0  0  0
 38 39  1  0  0  0  0
 38  1  1  0  0  0  0
  8  7  2  0  0  0  0
  3  4  1  0  0  0  0
  1  6  2  0  0  0  0
  4  5  2  0  0  0  0
  4  7  1  0  0  0  0
  6  5  1  0  0  0  0
 31 18  1  0  0  0  0
  7  9  2  0  0  0  0
  7 10  1  0  0  0  0
 29 28  1  0  0  0  0
 29 30  1  0  0  0  0
 18 19  1  0  0  0  0
 18 16  1  0  0  0  0
 28 27  1  0  0  0  0
 10 15  1  0  0  0  0
 10 11  1  0  0  0  0
 15 16  1  0  0  0  0
 19 20  1  0  0  0  0
 21 20  2  0  0  0  0
 16 17  1  0  0  0  0
 20 22  1  0  0  0  0
 30 26  1  0  0  0  0
 30 23  1  0  0  0  0
 27 26  1  0  0  0  0
 11 12  1  0  0  0  0
 22 23  1  0  0  0  0
 26 25  1  0  0  0  0
 23 24  1  0  0  0  0
 13 12  1  0  0  0  0
 12 14  1  0  0  0  0
 25 24  1  0  0  0  0
M  END
>  <InstanceId>
6B4N_G53_A_201

>  <ChemCompId>
G53

>  <PdbId>
6B4N

>  <ChainId>
A

>  <ResidueNumber>
201

>  <InsertionCode>


>  <Model>
1

>  <AltIds>


>  <MissingHeavyAtoms>
0

>  <ObservedFormula>
C32 N3 O10 S

>  <Name>
methyl 2-{4-[{(2R,3S)-3-[({[(3R,3aS,6aR)-hexahydrofuro[2,3-b]furan-3-yl]oxy}carbonyl)amino]-2-hydroxy-4-phenylbutyl}(2-methylpropyl)sulfamoyl]phenyl}-1,3-oxazole-4-carboxylate

>  <SystematicName>
methyl 2-[4-[[(2~{R},3~{S})-3-[[(3~{a}~{S},4~{R},6~{a}~{R})-2,3,3~{a},4,5,6~{a}-hexahydrofuro[2,3-b]furan-4-yl]oxycarbonylamino]-2-oxidanyl-4-phenyl-butyl]-(2-methylpropyl)sulfamoyl]phenyl]-1,3-oxazole-4-carboxylate

>  <Synonyms>


>  <Type>
NON-POLYMER

>  <Formula>
C32 H39 N3 O10 S

>  <MolecularWeight>
657.731

>  <ModifiedDate>
2017-11-17

>  <Parent>


>  <OneLetterCode>


>  <SubcomponentList>


>  <AmbiguousFlag>
N

>  <InChI>
InChI=1S/C32H39N3O10S/c1-20(2)16-35(46(39,40)23-11-9-22(10-12-23)29-33-26(18-43-29)30(37)41-3)17-27(36)25(15-21-7-5-4-6-8-21)34-32(38)45-28-19-44-31-24(28)13-14-42-31/h4-12,18,20,24-25,27-28,31,36H,13-17,19H2,1-3H3,(H,34,38)/t24-,25-,27+,28-,31+/m0/s1

>  <InChIKey>
JQOKXPZOASVDIX-FHDJBOIYSA-N

>  <SMILES>
CC(C)CN(C[C@H]([C@H](Cc1ccccc1)NC(=O)O[C@H]2CO[C@@H]3[C@H]2CCO3)O)S(=O)(=O)c4ccc(cc4)c5nc(co5)C(=O)OC

$$$$
