3K1J_ADP_A_642
  RCSB PDB08012019323D
Coordinates from PDB:3K1J:A:642 Model:1 without hydrogens
 27 29  0  0  0  0            999 V2000
  -29.7870  -61.7880   -9.3070   P 0  0  0  0  0  0  0  0  0  0  0  0
  -29.6190  -60.8490   -8.1830   O 0  0  0  0  0  0  0  0  0  0  0  0
  -29.4260  -61.2200  -10.6230   O 0  0  0  0  0  0  0  0  0  0  0  0
  -29.2010  -63.1140   -9.0630   O 0  0  0  0  0  0  0  0  0  0  0  0
  -32.3760  -62.3100  -10.6430   P 0  0  0  0  0  0  0  0  0  0  0  0
  -32.6100  -60.9860  -11.2350   O 0  0  0  0  0  0  0  0  0  0  0  0
  -31.8490  -63.3140  -11.5320   O 0  0  0  0  0  0  0  0  0  0  0  0
  -31.3320  -62.1740   -9.4110   O 0  0  0  0  0  0  0  0  0  0  0  0
  -33.7520  -62.8560  -10.0300   O 0  0  0  0  0  0  0  0  0  0  0  0
  -34.4470  -64.0860  -10.2670   C 0  0  0  0  0  0  0  0  0  0  0  0
  -35.9100  -63.9730  -10.3920   C 0  0  0  0  0  0  0  0  0  0  0  0
  -36.2740  -63.5780   -9.0650   O 0  0  0  0  0  0  0  0  0  0  0  0
  -36.4340  -62.7510  -11.1670   C 0  0  0  0  0  0  0  0  0  0  0  0
  -36.2480  -62.9200  -12.5630   O 0  0  0  0  0  0  0  0  0  0  0  0
  -37.8590  -62.6440  -10.5930   C 0  0  0  0  0  0  0  0  0  0  0  0
  -38.6040  -63.7210  -10.9860   O 0  0  0  0  0  0  0  0  0  0  0  0
  -37.5360  -62.7600   -9.1140   C 0  0  0  0  0  0  0  0  0  0  0  0
  -36.9010  -61.7370   -8.1520   N 0  0  0  0  0  0  0  0  0  0  0  0
  -35.7640  -61.4890   -7.4480   C 0  0  0  0  0  0  0  0  0  0  0  0
  -35.8220  -60.3750   -6.7490   N 0  0  0  0  0  0  0  0  0  0  0  0
  -37.0800  -59.8380   -7.0090   C 0  0  0  0  0  0  0  0  0  0  0  0
  -37.7910  -58.6330   -6.5650   C 0  0  0  0  0  0  0  0  0  0  0  0
  -37.2780  -57.7340   -5.6930   N 0  0  0  0  0  0  0  0  0  0  0  0
  -39.0720  -58.4240   -7.0620   N 0  0  0  0  0  0  0  0  0  0  0  0
  -39.5960  -59.3190   -7.9050   C 0  0  0  0  0  0  0  0  0  0  0  0
  -39.0230  -60.4700   -8.3680   N 0  0  0  0  0  0  0  0  0  0  0  0
  -37.7480  -60.6680   -7.8840   C 0  0  0  0  0  0  0  0  0  0  0  0
  1  2  2  0  0  0  0
  1  3  1  0  0  0  0
  1  4  1  0  0  0  0
  1  8  1  0  0  0  0
  5  6  2  0  0  0  0
  5  7  1  0  0  0  0
  5  8  1  0  0  0  0
  5  9  1  0  0  0  0
  9 10  1  0  0  0  0
 10 11  1  0  0  0  0
 11 12  1  0  0  0  0
 11 13  1  0  0  0  0
 12 17  1  0  0  0  0
 13 14  1  0  0  0  0
 13 15  1  0  0  0  0
 15 16  1  0  0  0  0
 15 17  1  0  0  0  0
 17 18  1  0  0  0  0
 18 19  1  0  0  0  0
 18 27  1  0  0  0  0
 19 20  2  0  0  0  0
 20 21  1  0  0  0  0
 21 22  1  0  0  0  0
 21 27  2  0  0  0  0
 22 23  1  0  0  0  0
 22 24  2  0  0  0  0
 24 25  1  0  0  0  0
 25 26  2  0  0  0  0
 26 27  1  0  0  0  0
M  END
>  <InstanceId>
3K1J_ADP_A_642

>  <ChemCompId>
ADP

>  <PdbId>
3K1J

>  <ChainId>
A

>  <ResidueNumber>
642

>  <InsertionCode>


>  <Model>
1

>  <AltIds>


>  <MissingHeavyAtoms>
0

>  <ObservedFormula>
C10 N5 O10 P2

>  <Name>
ADENOSINE-5'-DIPHOSPHATE

>  <SystematicName>
[(2R,3S,4R,5R)-5-(6-aminopurin-9-yl)-3,4-dihydroxy-oxolan-2-yl]methyl phosphono hydrogen phosphate

>  <Synonyms>


>  <Type>
NON-POLYMER

>  <Formula>
C10 H15 N5 O10 P2

>  <MolecularWeight>
427.201

>  <ModifiedDate>
2011-06-04

>  <Parent>
A

>  <OneLetterCode>


>  <SubcomponentList>


>  <AmbiguousFlag>
N

>  <InChI>
InChI=1S/C10H15N5O10P2/c11-8-5-9(13-2-12-8)15(3-14-5)10-7(17)6(16)4(24-10)1-23-27(21,22)25-26(18,19)20/h2-4,6-7,10,16-17H,1H2,(H,21,22)(H2,11,12,13)(H2,18,19,20)/t4-,6-,7-,10-/m1/s1

>  <InChIKey>
XTWYTFMLZFPYCI-KQYNXXCUSA-N

>  <SMILES>
c1nc(c2c(n1)n(cn2)[C@H]3[C@@H]([C@@H]([C@H](O3)CO[P@](=O)(O)OP(=O)(O)O)O)O)N

$$$$
