1LKE_DOG_A_500
  RCSB PDB08012015233D
Coordinates from PDB:1LKE:A:500 Model:1 without hydrogens
 28 32  0  0  0  0            999 V2000
   15.2650  -21.2770   37.4530   O 0  0  0  0  0  0  0  0  0  0  0  0
   14.6030  -22.2720   37.4610   C 0  0  0  0  0  0  0  0  0  0  0  0
   13.4710  -22.6250   36.6410   C 0  0  0  0  0  0  0  0  0  0  0  0
   14.8390  -23.3060   38.2920   O 0  0  0  0  0  0  0  0  0  0  0  0
   13.9160  -24.3950   38.0480   C 0  0  0  0  0  0  0  0  0  0  0  0
   13.0620  -23.8540   36.9790   C 0  0  0  0  0  0  0  0  0  0  0  0
   11.9260  -24.6400   36.4590   C 0  0  0  0  0  0  0  0  0  0  0  0
   12.1300  -26.1830   36.3780   C 0  0  0  0  0  0  0  0  0  0  0  0
   10.5510  -24.4330   37.2170   C 0  0  0  0  0  0  0  0  0  0  0  0
   10.5420  -23.2570   38.1900   C 0  0  0  0  0  0  0  0  0  0  0  0
    9.4700  -24.2150   36.1290   C 0  0  0  0  0  0  0  0  0  0  0  0
    9.6080  -22.8950   35.5440   O 0  0  0  0  0  0  0  0  0  0  0  0
   10.3040  -25.7990   37.9190   C 0  0  0  0  0  0  0  0  0  0  0  0
   10.8390  -26.8230   36.9020   C 0  0  0  0  0  0  0  0  0  0  0  0
   11.2120  -25.9320   39.0410   O 0  0  0  0  0  0  0  0  0  0  0  0
    8.8450  -26.0090   38.3570   C 0  0  0  0  0  0  0  0  0  0  0  0
    8.6220  -27.4280   38.8860   C 0  0  0  0  0  0  0  0  0  0  0  0
    7.7830  -25.6750   37.2840   C 0  0  0  0  0  0  0  0  0  0  0  0
    8.0680  -24.2710   36.6520   C 0  0  0  0  0  0  0  0  0  0  0  0
    6.3470  -25.8090   37.8600   C 0  0  0  0  0  0  0  0  0  0  0  0
    6.0900  -24.7760   38.9900   C 0  0  0  0  0  0  0  0  0  0  0  0
    6.1190  -27.2550   38.3960   C 0  0  0  0  0  0  0  0  0  0  0  0
    7.2120  -27.6550   39.4110   C 0  0  0  0  0  0  0  0  0  0  0  0
    6.0880  -28.3180   37.2770   C 0  0  0  0  0  0  0  0  0  0  0  0
    5.0730  -27.9620   36.1890   C 0  0  0  0  0  0  0  0  0  0  0  0
    3.7660  -28.0980   36.7460   O 0  0  0  0  0  0  0  0  0  0  0  0
    5.2890  -26.5800   35.6480   C 0  0  0  0  0  0  0  0  0  0  0  0
    5.2750  -25.5600   36.7670   C 0  0  0  0  0  0  0  0  0  0  0  0
  1  2  2  0  0  0  0
  2  3  1  0  0  0  0
  2  4  1  0  0  0  0
  3  6  2  0  0  0  0
  4  5  1  0  0  0  0
  5  6  1  0  0  0  0
  6  7  1  0  0  0  0
  7  8  1  0  0  0  0
  7  9  1  0  0  0  0
  8 14  1  0  0  0  0
  9 10  1  0  0  0  0
  9 11  1  0  0  0  0
  9 13  1  0  0  0  0
 11 12  1  0  0  0  0
 11 19  1  0  0  0  0
 13 14  1  0  0  0  0
 13 15  1  0  0  0  0
 13 16  1  0  0  0  0
 16 17  1  0  0  0  0
 16 18  1  0  0  0  0
 17 23  1  0  0  0  0
 18 19  1  0  0  0  0
 18 20  1  0  0  0  0
 20 21  1  0  0  0  0
 20 22  1  0  0  0  0
 20 28  1  0  0  0  0
 22 23  1  0  0  0  0
 22 24  1  0  0  0  0
 24 25  1  0  0  0  0
 25 26  1  0  0  0  0
 25 27  1  0  0  0  0
 27 28  1  0  0  0  0
M  END
>  <InstanceId>
1LKE_DOG_A_500

>  <ChemCompId>
DOG

>  <PdbId>
1LKE

>  <ChainId>
A

>  <ResidueNumber>
500

>  <InsertionCode>


>  <Model>
1

>  <AltIds>


>  <MissingHeavyAtoms>
0

>  <ObservedFormula>
C23 O5

>  <Name>
DIGOXIGENIN

>  <SystematicName>
4-[(3S,5R,8R,9S,10S,12R,13S,14S,17R)-3,12,14-trihydroxy-10,13-dimethyl-1,2,3,4,5,6,7,8,9,11,12,15,16,17-tetradecahydrocyclopenta[a]phenanthren-17-yl]-5H-furan-2-one

>  <Synonyms>
4-(3,12,14-TRIHYDROXY-10,13-DIMETHYL-HEXADECAHYDRO-CYCLOPENTA[A]PHENANTHREN-17-YL)-5H-FURAN-2-ONE

>  <Type>
NON-POLYMER

>  <Formula>
C23 H34 O5

>  <MolecularWeight>
390.513

>  <ModifiedDate>
2020-06-17

>  <Parent>


>  <OneLetterCode>


>  <SubcomponentList>


>  <AmbiguousFlag>
N

>  <InChI>
InChI=1S/C23H34O5/c1-21-7-5-15(24)10-14(21)3-4-17-18(21)11-19(25)22(2)16(6-8-23(17,22)27)13-9-20(26)28-12-13/h9,14-19,24-25,27H,3-8,10-12H2,1-2H3/t14-,15+,16-,17-,18+,19-,21+,22+,23+/m1/s1

>  <InChIKey>
SHIBSTMRCDJXLN-KCZCNTNESA-N

>  <SMILES>
C[C@]12CC[C@@H](C[C@H]1CC[C@@H]3[C@@H]2C[C@H]([C@]4([C@@]3(CC[C@@H]4C5=CC(=O)OC5)O)C)O)O

$$$$
