1QY1_PRZ_A_300
  RCSB PDB08012015493D
Coordinates from PDB:1QY1:A:300 Model:1 without hydrogens
 12 12  0  0  0  0            999 V2000
   50.2630   22.9610   42.7300   N 0  0  0  0  0  0  0  0  0  0  0  0
   50.2500   23.7750   41.6530   C 0  0  0  0  0  0  0  0  0  0  0  0
   51.2160   23.5720   40.6630   C 0  0  0  0  0  0  0  0  0  0  0  0
   52.1170   22.5790   40.8060   N 0  0  0  0  0  0  0  0  0  0  0  0
   52.1180   21.7900   41.8710   C 0  0  0  0  0  0  0  0  0  0  0  0
   51.1600   21.9900   42.8650   C 0  0  0  0  0  0  0  0  0  0  0  0
   49.1490   24.8530   41.5610   C 0  0  0  0  0  0  0  0  0  0  0  0
   48.2800   24.6440   40.3120   C 0  0  0  0  0  0  0  0  0  0  0  0
   47.2020   25.7290   40.2570   C 0  0  0  0  0  0  0  0  0  0  0  0
   47.6420   23.2490   40.3070   C 0  0  0  0  0  0  0  0  0  0  0  0
   51.2340   24.4430   39.6190   O 0  0  0  0  0  0  0  0  0  0  0  0
   52.4030   24.3330   38.8150   C 0  0  0  0  0  0  0  0  0  0  0  0
  1  2  2  0  0  0  0
  1  6  1  0  0  0  0
  2  3  1  0  0  0  0
  2  7  1  0  0  0  0
  3  4  2  0  0  0  0
  3 11  1  0  0  0  0
  4  5  1  0  0  0  0
  5  6  2  0  0  0  0
  7  8  1  0  0  0  0
  8  9  1  0  0  0  0
  8 10  1  0  0  0  0
 11 12  1  0  0  0  0
M  END
>  <InstanceId>
1QY1_PRZ_A_300

>  <ChemCompId>
PRZ

>  <PdbId>
1QY1

>  <ChainId>
A

>  <ResidueNumber>
300

>  <InsertionCode>


>  <Model>
1

>  <AltIds>


>  <MissingHeavyAtoms>
0

>  <ObservedFormula>
C9 N2 O

>  <Name>
2-ISOBUTYL-3-METHOXYPYRAZINE

>  <SystematicName>
2-methoxy-3-(2-methylpropyl)pyrazine

>  <Synonyms>


>  <Type>
NON-POLYMER

>  <Formula>
C9 H14 N2 O

>  <MolecularWeight>
166.22

>  <ModifiedDate>
2011-06-04

>  <Parent>


>  <OneLetterCode>


>  <SubcomponentList>


>  <AmbiguousFlag>
N

>  <InChI>
InChI=1S/C9H14N2O/c1-7(2)6-8-9(12-3)11-5-4-10-8/h4-5,7H,6H2,1-3H3

>  <InChIKey>
UXFSPRAGHGMRSQ-UHFFFAOYSA-N

>  <SMILES>
CC(C)Cc1c(nccn1)OC

$$$$
