3IBU_O48_A_300
  RCSB PDB08012019193D
Coordinates from PDB:3IBU:A:300 Model:1 without hydrogens
 15 14  0  0  0  0            999 V2000
   -4.6680    1.9020   14.5860   C 0  0  0  0  0  0  0  0  0  0  0  0
   -5.3980   -0.4970   16.2450   N 0  0  0  0  0  0  0  0  0  0  0  0
   -7.1440    1.2230   16.4020   O 0  0  0  0  0  0  0  0  0  0  0  0
   -5.8020    0.9370   16.7630   S 0  0  0  0  0  0  0  0  0  0  0  0
   -5.4780    2.9970   13.9150   C 0  0  0  0  0  0  0  0  0  0  0  0
   -5.4290    1.0410   18.1290   O 0  0  0  0  0  0  0  0  0  0  0  0
   -5.1300    4.4160   14.3470   C 0  0  0  0  0  0  0  0  0  0  0  0
   -4.8870    1.9950   16.0290   O 0  0  0  0  0  0  0  0  0  0  0  0
   -3.8390    4.9640   13.7830   C 0  0  0  0  0  0  0  0  0  0  0  0
   -3.5370    6.3600   14.2650   C 0  0  0  0  0  0  0  0  0  0  0  0
   -2.2240    6.9060   13.7890   C 0  0  0  0  0  0  0  0  0  0  0  0
   -1.9070    8.2760   14.3350   C 0  0  0  0  0  0  0  0  0  0  0  0
   -0.5010    8.7210   14.0400   C 0  0  0  0  0  0  0  0  0  0  0  0
   -0.2680   10.2040   14.1970   C 0  0  0  0  0  0  0  0  0  0  0  0
    0.1650   10.6270   15.5670   C 0  0  0  0  0  0  0  0  0  0  0  0
  1  5  1  0  0  0  0
  1  8  1  0  0  0  0
  2  4  1  0  0  0  0
  3  4  2  0  0  0  0
  4  6  2  0  0  0  0
  4  8  1  0  0  0  0
  5  7  1  0  0  0  0
  7  9  1  0  0  0  0
  9 10  1  0  0  0  0
 10 11  1  0  0  0  0
 11 12  1  0  0  0  0
 12 13  1  0  0  0  0
 13 14  1  0  0  0  0
 14 15  1  0  0  0  0
M  END
>  <InstanceId>
3IBU_O48_A_300

>  <ChemCompId>
O48

>  <PdbId>
3IBU

>  <ChainId>
A

>  <ResidueNumber>
300

>  <InsertionCode>


>  <Model>
1

>  <AltIds>


>  <MissingHeavyAtoms>
0

>  <ObservedFormula>
C10 N O3 S

>  <Name>
decyl sulfamate

>  <SystematicName>
decyl sulfamate

>  <Synonyms>
n-decyl sulfamate

>  <Type>
NON-POLYMER

>  <Formula>
C10 H23 N O3 S

>  <MolecularWeight>
237.36

>  <ModifiedDate>
2020-06-17

>  <Parent>


>  <OneLetterCode>


>  <SubcomponentList>


>  <AmbiguousFlag>
N

>  <InChI>
InChI=1S/C10H23NO3S/c1-2-3-4-5-6-7-8-9-10-14-15(11,12)13/h2-10H2,1H3,(H2,11,12,13)

>  <InChIKey>
JBKMRMOTMJVNML-UHFFFAOYSA-N

>  <SMILES>
CCCCCCCCCCOS(=O)(=O)N

$$$$
