2VPN_4CS_A_1311
  RCSB PDB08012018033D
Coordinates from PDB:2VPN:A:1311 Model:1 without hydrogens
 10 10  0  0  0  0            999 V2000
   43.8610   31.4390   35.0790   O 0  0  0  0  0  0  0  0  0  0  0  0
   43.5350   31.1580   33.9000   C 0  0  0  0  0  0  0  0  0  0  0  0
   43.4610   29.9940   33.4780   O 0  0  0  0  0  0  0  0  0  0  0  0
   43.2840   32.2710   32.9390   C 0  0  0  0  0  0  0  0  0  0  0  0
   42.3870   33.3630   33.5100   C 0  0  0  0  0  0  0  0  0  0  0  0
   42.1870   34.4380   32.4490   C 0  0  0  0  0  0  0  0  0  0  0  0
   41.8370   33.8640   31.1570   N 0  0  0  0  0  0  0  0  0  0  0  0
   42.0700   32.6140   30.8420   C 0  0  0  0  0  0  0  0  0  0  0  0
   41.5400   32.1210   29.5190   C 0  0  0  0  0  0  0  0  0  0  0  0
   42.7150   31.8090   31.6740   N 0  0  0  0  0  0  0  0  0  0  0  0
  1  2  2  0  0  0  0
  2  3  1  0  0  0  0
  2  4  1  0  0  0  0
  4  5  1  0  0  0  0
  4 10  1  0  0  0  0
  5  6  1  0  0  0  0
  6  7  1  0  0  0  0
  7  8  1  0  0  0  0
  8  9  1  0  0  0  0
  8 10  2  0  0  0  0
M  END
>  <InstanceId>
2VPN_4CS_A_1311

>  <ChemCompId>
4CS

>  <PdbId>
2VPN

>  <ChainId>
A

>  <ResidueNumber>
1311

>  <InsertionCode>


>  <Model>
1

>  <AltIds>


>  <MissingHeavyAtoms>
0

>  <ObservedFormula>
C6 N2 O2

>  <Name>
(4S)-2-METHYL-1,4,5,6-TETRAHYDROPYRIMIDINE-4-CARBOXYLIC ACID

>  <SystematicName>
(4S)-2-methyl-1,4,5,6-tetrahydropyrimidine-4-carboxylic acid

>  <Synonyms>
ECTOINE

>  <Type>
NON-POLYMER

>  <Formula>
C6 H10 N2 O2

>  <MolecularWeight>
142.156

>  <ModifiedDate>
2011-06-04

>  <Parent>


>  <OneLetterCode>


>  <SubcomponentList>


>  <AmbiguousFlag>


>  <InChI>
InChI=1S/C6H10N2O2/c1-4-7-3-2-5(8-4)6(9)10/h5H,2-3H2,1H3,(H,7,8)(H,9,10)/t5-/m0/s1

>  <InChIKey>
WQXNXVUDBPYKBA-YFKPBYRVSA-N

>  <SMILES>
CC1=N[C@@H](CCN1)C(=O)O

$$$$
