4TJZ_DKA_A_200
  RCSB PDB08012023143D
Coordinates from PDB:4TJZ:A:200 Model:1 without hydrogens
 12 11  0  0  0  0            999 V2000
    5.7860  -16.5090   -1.7320   C 0  0  0  0  0  0  0  0  0  0  0  0
    6.8560  -15.8670   -1.6780   O 0  0  0  0  0  0  0  0  0  0  0  0
    5.6310  -17.6330   -2.7260   C 0  0  0  0  0  0  0  0  0  0  0  0
    6.8290  -18.0280   -3.4880   C 0  0  0  0  0  0  0  0  0  0  0  0
    6.6350  -19.2030   -4.4060   C 0  0  0  0  0  0  0  0  0  0  0  0
    7.9380  -19.7450   -4.9790   C 0  0  0  0  0  0  0  0  0  0  0  0
    7.7380  -20.7990   -6.0670   C 0  0  0  0  0  0  0  0  0  0  0  0
    6.9300  -21.9970   -5.6690   C 0  0  0  0  0  0  0  0  0  0  0  0
    7.5110  -22.8040   -4.5720   C 0  0  0  0  0  0  0  0  0  0  0  0
    6.6710  -23.9980   -4.1160   C 0  0  0  0  0  0  0  0  0  0  0  0
    7.3160  -24.8090   -2.9960   C 0  0  0  0  0  0  0  0  0  0  0  0
    4.7970  -16.2560   -0.9760   O 0  0  0  0  0  0  0  0  0  0  0  0
  1  2  2  0  0  0  0
  1  3  1  0  0  0  0
  1 12  1  0  0  0  0
  3  4  1  0  0  0  0
  4  5  1  0  0  0  0
  5  6  1  0  0  0  0
  6  7  1  0  0  0  0
  7  8  1  0  0  0  0
  8  9  1  0  0  0  0
  9 10  1  0  0  0  0
 10 11  1  0  0  0  0
M  END
>  <InstanceId>
4TJZ_DKA_A_200

>  <ChemCompId>
DKA

>  <PdbId>
4TJZ

>  <ChainId>
A

>  <ResidueNumber>
200

>  <InsertionCode>


>  <Model>
1

>  <AltIds>


>  <MissingHeavyAtoms>
0

>  <ObservedFormula>
C10 O2

>  <Name>
DECANOIC ACID

>  <SystematicName>
decanoic acid

>  <Synonyms>


>  <Type>
NON-POLYMER

>  <Formula>
C10 H20 O2

>  <MolecularWeight>
172.265

>  <ModifiedDate>
2011-06-04

>  <Parent>


>  <OneLetterCode>


>  <SubcomponentList>


>  <AmbiguousFlag>
N

>  <InChI>
InChI=1S/C10H20O2/c1-2-3-4-5-6-7-8-9-10(11)12/h2-9H2,1H3,(H,11,12)

>  <InChIKey>
GHVNFZFCNZKVNT-UHFFFAOYSA-N

>  <SMILES>
CCCCCCCCCC(=O)O

$$$$
