4H7Q_COI_A_402
  RCSB PDB08012021543D
Coordinates from PDB:4H7Q:A:402 Model:1 without hydrogens
  9  8  0  0  0  0            999 V2000
   -7.9860  -31.9420   13.3750   C 0  0  0  0  0  0  0  0  0  0  0  0
   -8.5890  -31.4780   12.3760   O 0  0  0  0  0  0  0  0  0  0  0  0
   -7.0650  -32.7950   13.2360   O 0  0  0  0  0  0  0  0  0  0  0  0
   -8.3370  -31.5300   14.7470   C 0  0  0  0  0  0  0  0  0  0  0  0
   -8.6680  -30.3950   14.9730   O 0  0  0  0  0  0  0  0  0  0  0  0
   -8.2570  -32.5840   15.8360   C 0  0  0  0  0  0  0  0  0  0  0  0
   -9.3530  -32.6670   16.9020   C 0  0  0  0  0  0  0  0  0  0  0  0
   -8.9890  -32.1430   18.2000   C 0  0  0  0  0  0  0  0  0  0  0  0
  -10.6970  -32.2660   16.4240   C 0  0  0  0  0  0  0  0  0  0  0  0
  1  2  2  0  0  0  0
  1  3  1  0  0  0  0
  1  4  1  0  0  0  0
  4  5  2  0  0  0  0
  4  6  1  0  0  0  0
  6  7  1  0  0  0  0
  7  8  1  0  0  0  0
  7  9  1  0  0  0  0
M  END
>  <InstanceId>
4H7Q_COI_A_402

>  <ChemCompId>
COI

>  <PdbId>
4H7Q

>  <ChainId>
A

>  <ResidueNumber>
402

>  <InsertionCode>


>  <Model>
1

>  <AltIds>


>  <MissingHeavyAtoms>
0

>  <ObservedFormula>
C6 O3

>  <Name>
2-OXO-4-METHYLPENTANOIC ACID

>  <SystematicName>
4-methyl-2-oxidanylidene-pentanoic acid

>  <Synonyms>
alpha-ketoisocaproic acid

>  <Type>
NON-POLYMER

>  <Formula>
C6 H10 O3

>  <MolecularWeight>
130.142

>  <ModifiedDate>
2013-05-29

>  <Parent>


>  <OneLetterCode>


>  <SubcomponentList>


>  <AmbiguousFlag>
N

>  <InChI>
InChI=1S/C6H10O3/c1-4(2)3-5(7)6(8)9/h4H,3H2,1-2H3,(H,8,9)

>  <InChIKey>
BKAJNAXTPSGJCU-UHFFFAOYSA-N

>  <SMILES>
CC(C)CC(=O)C(=O)O

$$$$
