6C7Q_EO1_A_501
  RCSB PDB08022004113D
Coordinates from PDB:6C7Q:A:501 Model:1 without hydrogens
 34 39  0  0  0  0            999 V2000
   14.5790   -4.8450    5.8200   C 0  0  0  0  0  0  0  0  0  0  0  0
   15.5450   -5.6920    6.2620   C 0  0  0  0  0  0  0  0  0  0  0  0
   16.7660   -5.3250    7.0370   C 0  0  0  0  0  0  0  0  0  0  0  0
   17.0600   -5.9010    8.2970   C 0  0  0  0  0  0  0  0  0  0  0  0
   16.5840   -7.6870    9.8270   C 0  0  0  0  0  0  0  0  0  0  0  0
   18.1800   -5.5110    9.0250   C 0  0  0  0  0  0  0  0  0  0  0  0
   18.6090   -4.7940   12.1690   C 0  0  0  0  0  0  0  0  0  0  0  0
   16.8160   -3.1940   12.3510   C 0  0  0  0  0  0  0  0  0  0  0  0
   16.0500   -4.1110   13.0540   C 0  0  0  0  0  0  0  0  0  0  0  0
   17.6530   -4.3590    6.5310   C 0  0  0  0  0  0  0  0  0  0  0  0
   15.0860   -6.9900    5.8590   C 0  0  0  0  0  0  0  0  0  0  0  0
   15.8160   -8.2910    5.9170   C 0  0  0  0  0  0  0  0  0  0  0  0
   13.9200   -6.9250    5.2910   N 0  0  0  0  0  0  0  0  0  0  0  0
   13.5810   -5.5500    5.2480   O 0  0  0  0  0  0  0  0  0  0  0  0
   14.4450   -3.3710    5.7890   C 0  0  0  0  0  0  0  0  0  0  0  0
   18.7590   -3.9690    7.2670   C 0  0  0  0  0  0  0  0  0  0  0  0
   19.7580   -3.0740    6.9340   N 0  0  0  0  0  0  0  0  0  0  0  0
   20.7040   -3.0410    7.9360   C 0  0  0  0  0  0  0  0  0  0  0  0
   21.8560   -2.3460    7.9270   N 0  0  0  0  0  0  0  0  0  0  0  0
   22.6400   -2.5530    8.9920   C 0  0  0  0  0  0  0  0  0  0  0  0
   23.9350   -1.8070    9.0430   C 0  0  0  0  0  0  0  0  0  0  0  0
   22.3630   -3.3690   10.0170   N 0  0  0  0  0  0  0  0  0  0  0  0
   21.2140   -4.0670   10.0530   C 0  0  0  0  0  0  0  0  0  0  0  0
   20.2910   -3.9380    8.9730   C 0  0  0  0  0  0  0  0  0  0  0  0
   19.0390   -4.5340    8.5260   C 0  0  0  0  0  0  0  0  0  0  0  0
   16.1800   -6.8510    8.7420   O 0  0  0  0  0  0  0  0  0  0  0  0
   20.9740   -4.8510   11.1880   N 0  0  0  0  0  0  0  0  0  0  0  0
   19.9460   -5.3610   11.9100   C 0  0  0  0  0  0  0  0  0  0  0  0
   18.0850   -3.5310   11.9010   C 0  0  0  0  0  0  0  0  0  0  0  0
   16.5320   -5.3860   13.3100   C 0  0  0  0  0  0  0  0  0  0  0  0
   17.8090   -5.7180   12.8640   C 0  0  0  0  0  0  0  0  0  0  0  0
   18.6420   -6.8330   12.9870   N 0  0  0  0  0  0  0  0  0  0  0  0
   19.9060   -6.6260   12.4470   N 0  0  0  0  0  0  0  0  0  0  0  0
   18.2680   -8.1160   13.5700   C 0  0  0  0  0  0  0  0  0  0  0  0
 14 13  1  0  0  0  0
 14  1  1  0  0  0  0
 13 11  2  0  0  0  0
 15  1  1  0  0  0  0
  1  2  2  0  0  0  0
 11 12  1  0  0  0  0
 11  2  1  0  0  0  0
  2  3  1  0  0  0  0
 10  3  2  0  0  0  0
 10 16  1  0  0  0  0
 17 16  1  0  0  0  0
 17 18  1  0  0  0  0
  3  4  1  0  0  0  0
 16 25  2  0  0  0  0
 19 18  2  0  0  0  0
 19 20  1  0  0  0  0
 18 24  1  0  0  0  0
  4 26  1  0  0  0  0
  4  6  2  0  0  0  0
 25 24  1  0  0  0  0
 25  6  1  0  0  0  0
 26  5  1  0  0  0  0
 24 23  2  0  0  0  0
 20 21  1  0  0  0  0
 20 22  2  0  0  0  0
 22 23  1  0  0  0  0
 23 27  1  0  0  0  0
 27 28  1  0  0  0  0
 29  7  2  0  0  0  0
 29  8  1  0  0  0  0
 28  7  1  0  0  0  0
 28 33  2  0  0  0  0
  7 31  1  0  0  0  0
  8  9  2  0  0  0  0
 33 32  1  0  0  0  0
 31 32  1  0  0  0  0
 31 30  2  0  0  0  0
 32 34  1  0  0  0  0
  9 30  1  0  0  0  0
M  END
>  <InstanceId>
6C7Q_EO1_A_501

>  <ChemCompId>
EO1

>  <PdbId>
6C7Q

>  <ChainId>
A

>  <ResidueNumber>
501

>  <InsertionCode>


>  <Model>
1

>  <AltIds>


>  <MissingHeavyAtoms>
0

>  <ObservedFormula>
C25 N7 O2

>  <Name>
7-(3,5-dimethyl-1,2-oxazol-4-yl)-6-methoxy-2-methyl-N-(1-methyl-1H-indazol-3-yl)-9H-pyrimido[4,5-b]indol-4-amine

>  <SystematicName>
7-(3,5-dimethyl-1,2-oxazol-4-yl)-6-methoxy-2-methyl-~{N}-(1-methylindazol-3-yl)-9~{H}-pyrimido[4,5-b]indol-4-amine

>  <Synonyms>


>  <Type>
NON-POLYMER

>  <Formula>
C25 H23 N7 O2

>  <MolecularWeight>
453.496

>  <ModifiedDate>
2018-07-27

>  <Parent>


>  <OneLetterCode>


>  <SubcomponentList>


>  <AmbiguousFlag>
N

>  <InChI>
InChI=1S/C25H23N7O2/c1-12-21(13(2)34-31-12)17-10-18-16(11-20(17)33-5)22-24(28-18)26-14(3)27-25(22)29-23-15-8-6-7-9-19(15)32(4)30-23/h6-11H,1-5H3,(H2,26,27,28,29,30)

>  <InChIKey>
MQUZTKXBCFOZRW-UHFFFAOYSA-N

>  <SMILES>
Cc1c(c(on1)C)c2cc3c(cc2OC)c4c([nH]3)nc(nc4Nc5c6ccccc6n(n5)C)C

$$$$
