4ER1_0ZP_E_327
  RCSB PDB08012021383D
Coordinates from PDB:4ER1:E:327 Model:1 without hydrogens
 60 65  0  0  0  0            999 V2000
    3.3700   29.0970   17.3370   C 0  0  0  0  0  0  0  0  0  0  0  0
    3.2220   28.1590   16.5360   O 0  0  0  0  0  0  0  0  0  0  0  0
    4.0370   28.8700   18.6880   C 0  0  0  0  0  0  0  0  0  0  0  0
    3.8690   27.4850   19.1450   C 0  0  0  0  0  0  0  0  0  0  0  0
    2.3400   27.2190   19.4680   C 0  0  0  0  0  0  0  0  0  0  0  0
    1.4790   28.3200   19.5730   C 0  0  0  0  0  0  0  0  0  0  0  0
    0.1180   28.1550   19.8270   C 0  0  0  0  0  0  0  0  0  0  0  0
   -0.4120   26.8810   19.9770   C 0  0  0  0  0  0  0  0  0  0  0  0
    0.4190   25.7710   19.8720   C 0  0  0  0  0  0  0  0  0  0  0  0
   -0.1390   24.5010   20.0400   C 0  0  0  0  0  0  0  0  0  0  0  0
    0.6920   23.3770   19.9910   C 0  0  0  0  0  0  0  0  0  0  0  0
    2.0610   23.5230   19.7340   C 0  0  0  0  0  0  0  0  0  0  0  0
    2.6090   24.7970   19.5370   C 0  0  0  0  0  0  0  0  0  0  0  0
    1.7880   25.9270   19.6150   C 0  0  0  0  0  0  0  0  0  0  0  0
    5.5310   29.1860   18.4440   C 0  0  0  0  0  0  0  0  0  0  0  0
    6.4800   28.5800   19.4690   C 0  0  0  0  0  0  0  0  0  0  0  0
    7.0100   27.3130   19.1990   C 0  0  0  0  0  0  0  0  0  0  0  0
    7.8720   26.7120   20.0960   C 0  0  0  0  0  0  0  0  0  0  0  0
    8.2060   27.3680   21.2590   C 0  0  0  0  0  0  0  0  0  0  0  0
    7.7010   28.6380   21.5590   C 0  0  0  0  0  0  0  0  0  0  0  0
    8.0170   29.3460   22.7460   C 0  0  0  0  0  0  0  0  0  0  0  0
    7.4600   30.6290   22.9630   C 0  0  0  0  0  0  0  0  0  0  0  0
    6.6280   31.2250   22.0830   C 0  0  0  0  0  0  0  0  0  0  0  0
    6.2810   30.5840   20.9100   C 0  0  0  0  0  0  0  0  0  0  0  0
    6.7930   29.3290   20.6460   C 0  0  0  0  0  0  0  0  0  0  0  0
    2.9880   30.3470   17.1990   N 0  0  0  0  0  0  0  0  0  0  0  0
    2.5080   30.9410   15.9480   C 0  0  0  0  0  0  0  0  0  0  0  0
    3.2180   32.2710   15.7340   C 0  0  0  0  0  0  0  0  0  0  0  0
    2.7840   33.3000   16.2810   O 0  0  0  0  0  0  0  0  0  0  0  0
    1.1010   31.5170   15.9360   C 0  0  0  0  0  0  0  0  0  0  0  0
   -0.1290   30.6940   16.2880   C 0  0  0  0  0  0  0  0  0  0  0  0
   -0.1240   29.3730   16.7380   N 0  3  0  0  0  0  0  0  0  0  0  0
   -1.4150   31.1070   16.2550   C 0  0  0  0  0  0  0  0  0  0  0  0
   -1.3990   29.0360   16.9760   C 0  0  0  0  0  0  0  0  0  0  0  0
   -2.1750   30.0670   16.6930   N 0  0  0  0  0  0  0  0  0  0  0  0
    4.1920   32.2850   14.9390   N 0  0  0  0  0  0  0  0  0  0  0  0
    5.0220   33.4600   14.6390   C 0  0  0  0  0  0  0  0  0  0  0  0
    6.5010   33.0720   14.7890   C 0  0  0  0  0  0  0  0  0  0  0  0
    6.8090   32.4940   16.1800   C 0  0  0  0  0  0  0  0  0  0  0  0
    6.6550   33.6180   17.2190   C 0  0  0  0  0  0  0  0  0  0  0  0
    8.1100   31.9450   16.1970   C 0  0  0  0  0  0  0  0  0  0  0  0
    7.0080   33.1300   18.6240   C 0  0  0  0  0  0  0  0  0  0  0  0
    8.4780   31.4240   17.5950   C 0  0  0  0  0  0  0  0  0  0  0  0
    8.4130   32.5520   18.6160   C 0  0  0  0  0  0  0  0  0  0  0  0
    4.6940   33.9640   13.2150   C 0  0  0  0  0  0  0  0  0  0  0  0
    5.2640   33.0830   12.2530   O 0  0  0  0  0  0  0  0  0  0  0  0
    3.1570   34.0070   13.0160   C 0  0  0  0  0  0  0  0  0  0  0  0
    2.7270   35.1090   12.1030   C 0  0  0  0  0  0  0  0  0  0  0  0
    1.2620   35.0630   11.9100   C 0  0  0  0  0  0  0  0  0  0  0  0
    0.9130   34.7720   10.4470   C 0  0  0  0  0  0  0  0  0  0  0  0
    0.8890   33.2610   10.2090   C 0  0  0  0  0  0  0  0  0  0  0  0
   -0.4680   35.3460   10.1130   C 0  0  0  0  0  0  0  0  0  0  0  0
    3.0120   36.2820   12.6290   C 0  0  0  0  0  0  0  0  0  0  0  0
    2.5120   36.6230   13.7090   O 0  0  0  0  0  0  0  0  0  0  0  0
    3.8280   37.0190   11.9200   N 0  0  0  0  0  0  0  0  0  0  0  0
    4.2820   38.3150   12.3940   C 0  0  0  0  0  0  0  0  0  0  0  0
    3.6260   39.4460   11.6220   C 0  0  0  0  0  0  0  0  0  0  0  0
    3.4910   40.7150   12.4610   C 0  0  0  0  0  0  0  0  0  0  0  0
    2.2200   39.1200   11.1240   C 0  0  0  0  0  0  0  0  0  0  0  0
    4.4400   41.8240   12.0150   C 0  0  0  0  0  0  0  0  0  0  0  0
  1  2  2  0  0  0  0
  1  3  1  0  0  0  0
  3  4  1  0  0  0  0
  3 15  1  0  0  0  0
  4  5  1  0  0  0  0
  5  6  2  0  0  0  0
  5 14  1  0  0  0  0
  6  7  1  0  0  0  0
  7  8  2  0  0  0  0
  8  9  1  0  0  0  0
  9 10  2  0  0  0  0
  9 14  1  0  0  0  0
 10 11  1  0  0  0  0
 11 12  2  0  0  0  0
 12 13  1  0  0  0  0
 13 14  2  0  0  0  0
 15 16  1  0  0  0  0
 16 17  2  0  0  0  0
 16 25  1  0  0  0  0
 17 18  1  0  0  0  0
 18 19  2  0  0  0  0
 19 20  1  0  0  0  0
 20 21  2  0  0  0  0
 20 25  1  0  0  0  0
 21 22  1  0  0  0  0
 22 23  2  0  0  0  0
 23 24  1  0  0  0  0
 24 25  2  0  0  0  0
 26 27  1  0  0  0  0
 27 28  1  0  0  0  0
 27 30  1  0  0  0  0
 28 29  2  0  0  0  0
 30 31  1  0  0  0  0
 31 32  1  0  0  0  0
 31 33  2  0  0  0  0
 32 34  2  0  0  0  0
 33 35  1  0  0  0  0
 34 35  1  0  0  0  0
 36 37  1  0  0  0  0
 37 38  1  0  0  0  0
 37 45  1  0  0  0  0
 38 39  1  0  0  0  0
 39 40  1  0  0  0  0
 39 41  1  0  0  0  0
 40 42  1  0  0  0  0
 41 43  1  0  0  0  0
 42 44  1  0  0  0  0
 43 44  1  0  0  0  0
 45 46  1  0  0  0  0
 45 47  1  0  0  0  0
 47 48  1  0  0  0  0
 48 49  1  0  0  0  0
 48 53  1  0  0  0  0
 49 50  1  0  0  0  0
 50 51  1  0  0  0  0
 50 52  1  0  0  0  0
 53 54  2  0  0  0  0
 55 56  1  0  0  0  0
 56 57  1  0  0  0  0
 57 58  1  0  0  0  0
 57 59  1  0  0  0  0
 58 60  1  0  0  0  0
  1 26  1  0  0  0  0
 28 36  1  0  0  0  0
 53 55  1  0  0  0  0
M  CHG  1  32   1
M  END
>  <InstanceId>
4ER1_0ZP_E_327

>  <ChemCompId>
0ZP

>  <PdbId>
4ER1

>  <ChainId>
E

>  <ResidueNumber>
327

>  <InsertionCode>


>  <Model>
1

>  <AltIds>


>  <MissingHeavyAtoms>
0

>  <ObservedFormula>
C51 N5 O4

>  <Name>
N-[(1R,2R,4R)-1-(cyclohexylmethyl)-2-hydroxy-6-methyl-4-{[(2R)-2-methylbutyl]carbamoyl}heptyl]-3-(1H-imidazol-3-ium-4-y l)-N~2~-[3-naphthalen-1-yl-2-(naphthalen-1-ylmethyl)propanoyl]-L-alaninamide

>  <SystematicName>
(2R,4S,5S)-6-cyclohexyl-4-hydroxy-5-[[(2S)-3-(1H-imidazol-3-ium-4-yl)-2-[[3-naphthalen-1-yl-2-(naphthalen-1-ylmethyl)propanoyl]amino]propanoyl]amino]-N-[(2S)-2-methylbutyl]-2-(2-methylpropyl)hexanamide

>  <Synonyms>
PD125967

>  <Type>
peptide-like

>  <Formula>
C51 H68 N5 O4

>  <MolecularWeight>
815.117

>  <ModifiedDate>
2020-06-17

>  <Parent>


>  <OneLetterCode>


>  <SubcomponentList>
BNA HIS CAL DCI

>  <AmbiguousFlag>
N

>  <InChI>
InChI=1S/C51H67N5O4/c1-5-35(4)31-53-49(58)41(25-34(2)3)29-48(57)46(26-36-15-7-6-8-16-36)55-51(60)47(30-43-32-52-33-54-43)56-50(59)42(27-39-21-13-19-37-17-9-11-23-44(37)39)28-40-22-14-20-38-18-10-12-24-45(38)40/h9-14,17-24,32-36,41-42,46-48,57H,5-8,15-16,25-31H2,1-4H3,(H,52,54)(H,53,58)(H,55,60)(H,56,59)/p+1/t35-,41+,46-,47-,48-/m0/s1

>  <InChIKey>
SIGGSNKWBGJQQB-XNTVDALVSA-O

>  <SMILES>
CC[C@H](C)CNC(=O)[C@H](CC(C)C)C[C@@H]([C@H](CC1CCCCC1)NC(=O)[C@H](Cc2c[nH]c[nH+]2)NC(=O)C(Cc3cccc4c3cccc4)Cc5cccc6c5cccc6)O

$$$$
