5AQZ_SGV_A_1389
  RCSB PDB08022000483D
Coordinates from PDB:5AQZ:A:1389 Model:1 without hydrogens
 22 24  0  0  0  0            999 V2000
   18.2670  -10.6920  -12.7620   N 0  0  0  0  0  0  0  0  0  0  0  0
   17.1500  -10.0380  -13.0820   C 0  0  0  0  0  0  0  0  0  0  0  0
   16.0480   -9.8580  -12.3540   N 0  0  0  0  0  0  0  0  0  0  0  0
   16.1410  -10.4260  -11.1470   C 0  0  0  0  0  0  0  0  0  0  0  0
   17.2510  -11.1430  -10.6680   C 0  0  0  0  0  0  0  0  0  0  0  0
   18.3500  -11.2730  -11.5470   C 0  0  0  0  0  0  0  0  0  0  0  0
   19.4530  -11.9620  -11.2530   N 0  0  0  0  0  0  0  0  0  0  0  0
   16.9540  -11.5680   -9.3220   C 0  0  0  0  0  0  0  0  0  0  0  0
   15.6960  -11.1100   -9.0370   C 0  0  0  0  0  0  0  0  0  0  0  0
   15.1930  -10.4070  -10.1530   N 0  0  0  0  0  0  0  0  0  0  0  0
   13.8800   -9.7770  -10.2240   C 0  0  0  0  0  0  0  0  0  0  0  0
   17.8460  -12.3090   -8.4320   C 0  0  0  0  0  0  0  0  0  0  0  0
   17.4420  -12.3720   -7.1730   N 0  0  0  0  0  0  0  0  0  0  0  0
   18.8950  -12.8260   -8.8250   O 0  0  0  0  0  0  0  0  0  0  0  0
   12.7080  -10.7400  -10.1030   C 0  0  0  0  0  0  0  0  0  0  0  0
   12.4150  -11.3450  -11.3540   O 0  0  0  0  0  0  0  0  0  0  0  0
   11.6000   -9.7840   -9.6590   C 0  0  0  0  0  0  0  0  0  0  0  0
   10.9770   -9.1460  -10.7630   O 0  0  0  0  0  0  0  0  0  0  0  0
   12.3460   -8.7730   -8.7880   C 0  0  0  0  0  0  0  0  0  0  0  0
   13.7430   -8.8790   -9.1440   O 0  0  0  0  0  0  0  0  0  0  0  0
   12.1930   -8.9800   -7.3000   C 0  0  0  0  0  0  0  0  0  0  0  0
   12.6090  -10.2830   -6.9230   O 0  0  0  0  0  0  0  0  0  0  0  0
  1  2  2  0  0  0  0
  1  6  1  0  0  0  0
  2  3  1  0  0  0  0
  3  4  2  0  0  0  0
  4  5  1  0  0  0  0
  4 10  1  0  0  0  0
  5  6  2  0  0  0  0
  5  8  1  0  0  0  0
  6  7  1  0  0  0  0
  8  9  2  0  0  0  0
  8 12  1  0  0  0  0
  9 10  1  0  0  0  0
 10 11  1  0  0  0  0
 11 15  1  0  0  0  0
 11 20  1  0  0  0  0
 12 13  1  0  0  0  0
 12 14  2  0  0  0  0
 15 16  1  0  0  0  0
 15 17  1  0  0  0  0
 17 18  1  0  0  0  0
 17 19  1  0  0  0  0
 19 20  1  0  0  0  0
 19 21  1  0  0  0  0
 21 22  1  0  0  0  0
M  END
>  <InstanceId>
5AQZ_SGV_A_1389

>  <ChemCompId>
SGV

>  <PdbId>
5AQZ

>  <ChainId>
A

>  <ResidueNumber>
1389

>  <InsertionCode>


>  <Model>
1

>  <AltIds>


>  <MissingHeavyAtoms>
0

>  <ObservedFormula>
C12 N5 O5

>  <Name>
SANGIVAMYCIN

>  <SystematicName>
4-azanyl-7-[(2R,3R,4S,5R)-3,4-dihydroxy-5-(hydroxymethyl)oxolan-2-yl]pyrrolo[2,3-d]pyrimidine-5-carboxamide

>  <Synonyms>
4-amino-7-beta-D-ribofuranosyl-7H-pyrrolo[2,3-d]pyrimidine-5-carboxamide

>  <Type>
NON-POLYMER

>  <Formula>
C12 H15 N5 O5

>  <MolecularWeight>
309.278

>  <ModifiedDate>
2020-06-17

>  <Parent>


>  <OneLetterCode>


>  <SubcomponentList>


>  <AmbiguousFlag>
N

>  <InChI>
InChI=1S/C12H15N5O5/c13-9-6-4(10(14)21)1-17(11(6)16-3-15-9)12-8(20)7(19)5(2-18)22-12/h1,3,5,7-8,12,18-20H,2H2,(H2,14,21)(H2,13,15,16)/t5-,7-,8-,12-/m1/s1

>  <InChIKey>
OBZJZDHRXBKKTJ-JTFADIMSSA-N

>  <SMILES>
c1c(c2c(ncnc2n1[C@H]3[C@@H]([C@@H]([C@H](O3)CO)O)O)N)C(=O)N

$$$$
