5EVZ_ADP_A_503
  RCSB PDB08022001173D
Coordinates from PDB:5EVZ:A:503 Model:1 without hydrogens
 27 29  0  0  0  0            999 V2000
   20.3340   -0.3910    2.9960   P 0  0  0  0  0  0  0  0  0  0  0  0
   20.1830   -0.0100    1.5640   O 0  0  0  0  0  0  0  0  0  0  0  0
   21.7230   -0.2740    3.6090   O 0  0  0  0  0  0  0  0  0  0  0  0
   19.2670    0.1670    3.9070   O 0  0  0  0  0  0  0  0  0  0  0  0
   18.9690   -2.9280    2.4560   P 0  0  0  0  0  0  0  0  0  0  0  0
   17.9710   -2.1220    1.7150   O 0  0  0  0  0  0  0  0  0  0  0  0
   19.6880   -4.0750    1.8040   O 0  0  0  0  0  0  0  0  0  0  0  0
   20.1030   -2.0010    3.1070   O 0  0  0  0  0  0  0  0  0  0  0  0
   18.1700   -3.4430    3.7600   O 0  0  0  0  0  0  0  0  0  0  0  0
   18.8780   -4.1400    4.7990   C 0  0  0  0  0  0  0  0  0  0  0  0
   17.8920   -4.7120    5.8050   C 0  0  0  0  0  0  0  0  0  0  0  0
   17.0360   -5.6150    5.1110   O 0  0  0  0  0  0  0  0  0  0  0  0
   18.5940   -5.4900    6.9120   C 0  0  0  0  0  0  0  0  0  0  0  0
   18.0990   -5.1270    8.1930   O 0  0  0  0  0  0  0  0  0  0  0  0
   18.2660   -6.9390    6.6200   C 0  0  0  0  0  0  0  0  0  0  0  0
   18.2430   -7.7010    7.8450   O 0  0  0  0  0  0  0  0  0  0  0  0
   16.9080   -6.7460    5.9550   C 0  0  0  0  0  0  0  0  0  0  0  0
   16.4880   -7.9240    5.1830   N 0  0  0  0  0  0  0  0  0  0  0  0
   17.1210   -8.4560    4.1360   C 0  0  0  0  0  0  0  0  0  0  0  0
   16.4500   -9.5570    3.7100   N 0  0  0  0  0  0  0  0  0  0  0  0
   15.3620   -9.6990    4.4960   C 0  0  0  0  0  0  0  0  0  0  0  0
   14.2500  -10.6480    4.5870   C 0  0  0  0  0  0  0  0  0  0  0  0
   14.2130  -11.6600    3.6840   N 0  0  0  0  0  0  0  0  0  0  0  0
   13.3210  -10.4510    5.5550   N 0  0  0  0  0  0  0  0  0  0  0  0
   13.3930   -9.4270    6.4340   C 0  0  0  0  0  0  0  0  0  0  0  0
   14.4030   -8.5230    6.4070   N 0  0  0  0  0  0  0  0  0  0  0  0
   15.3900   -8.6150    5.4780   C 0  0  0  0  0  0  0  0  0  0  0  0
  1  2  2  0  0  0  0
  1  3  1  0  0  0  0
  1  4  1  0  0  0  0
  1  8  1  0  0  0  0
  5  6  2  0  0  0  0
  5  7  1  0  0  0  0
  5  8  1  0  0  0  0
  5  9  1  0  0  0  0
  9 10  1  0  0  0  0
 10 11  1  0  0  0  0
 11 12  1  0  0  0  0
 11 13  1  0  0  0  0
 12 17  1  0  0  0  0
 13 14  1  0  0  0  0
 13 15  1  0  0  0  0
 15 16  1  0  0  0  0
 15 17  1  0  0  0  0
 17 18  1  0  0  0  0
 18 19  1  0  0  0  0
 18 27  1  0  0  0  0
 19 20  2  0  0  0  0
 20 21  1  0  0  0  0
 21 22  1  0  0  0  0
 21 27  2  0  0  0  0
 22 23  1  0  0  0  0
 22 24  2  0  0  0  0
 24 25  1  0  0  0  0
 25 26  2  0  0  0  0
 26 27  1  0  0  0  0
M  END
>  <InstanceId>
5EVZ_ADP_A_503

>  <ChemCompId>
ADP

>  <PdbId>
5EVZ

>  <ChainId>
A

>  <ResidueNumber>
503

>  <InsertionCode>


>  <Model>
1

>  <AltIds>


>  <MissingHeavyAtoms>
0

>  <ObservedFormula>
C10 N5 O10 P2

>  <Name>
ADENOSINE-5'-DIPHOSPHATE

>  <SystematicName>
[(2R,3S,4R,5R)-5-(6-aminopurin-9-yl)-3,4-dihydroxy-oxolan-2-yl]methyl phosphono hydrogen phosphate

>  <Synonyms>


>  <Type>
NON-POLYMER

>  <Formula>
C10 H15 N5 O10 P2

>  <MolecularWeight>
427.201

>  <ModifiedDate>
2011-06-04

>  <Parent>
A

>  <OneLetterCode>


>  <SubcomponentList>


>  <AmbiguousFlag>
N

>  <InChI>
InChI=1S/C10H15N5O10P2/c11-8-5-9(13-2-12-8)15(3-14-5)10-7(17)6(16)4(24-10)1-23-27(21,22)25-26(18,19)20/h2-4,6-7,10,16-17H,1H2,(H,21,22)(H2,11,12,13)(H2,18,19,20)/t4-,6-,7-,10-/m1/s1

>  <InChIKey>
XTWYTFMLZFPYCI-KQYNXXCUSA-N

>  <SMILES>
c1nc(c2c(n1)n(cn2)[C@H]3[C@@H]([C@@H]([C@H](O3)CO[P@](=O)(O)OP(=O)(O)O)O)O)N

$$$$
