1LNM_DTX_A_700
  RCSB PDB08012015233D
Coordinates from PDB:1LNM:A:700 Model:1 without hydrogens
 27 31  0  0  0  0            999 V2000
   14.7810  -21.2920   37.1060   O 0  0  0  0  0  0  0  0  0  0  0  0
   14.0400  -22.2080   37.0350   C 0  0  0  0  0  0  0  0  0  0  0  0
   12.9040  -22.5250   36.1640   C 0  0  0  0  0  0  0  0  0  0  0  0
   14.2300  -23.2610   37.9230   O 0  0  0  0  0  0  0  0  0  0  0  0
   13.2240  -24.2650   37.6620   C 0  0  0  0  0  0  0  0  0  0  0  0
   12.4200  -23.7400   36.5320   C 0  0  0  0  0  0  0  0  0  0  0  0
   11.2030  -24.5070   36.1160   C 0  0  0  0  0  0  0  0  0  0  0  0
   11.5560  -26.0430   36.1120   C 0  0  0  0  0  0  0  0  0  0  0  0
    9.9670  -24.3170   36.9940   C 0  0  0  0  0  0  0  0  0  0  0  0
    8.7370  -24.1550   36.0510   C 0  0  0  0  0  0  0  0  0  0  0  0
    7.3760  -24.3510   36.7060   C 0  0  0  0  0  0  0  0  0  0  0  0
   10.0700  -23.1180   37.9310   C 0  0  0  0  0  0  0  0  0  0  0  0
    9.7900  -25.7260   37.6820   C 0  0  0  0  0  0  0  0  0  0  0  0
   10.2620  -26.6830   36.6120   C 0  0  0  0  0  0  0  0  0  0  0  0
   10.8260  -25.8640   38.7020   O 0  0  0  0  0  0  0  0  0  0  0  0
    8.4190  -25.9590   38.3610   C 0  0  0  0  0  0  0  0  0  0  0  0
    8.3930  -27.3110   39.0790   C 0  0  0  0  0  0  0  0  0  0  0  0
    7.2220  -25.7460   37.3730   C 0  0  0  0  0  0  0  0  0  0  0  0
    5.8660  -25.9760   38.1060   C 0  0  0  0  0  0  0  0  0  0  0  0
    4.7060  -25.8560   37.0780   C 0  0  0  0  0  0  0  0  0  0  0  0
    5.5120  -24.8810   39.1660   C 0  0  0  0  0  0  0  0  0  0  0  0
    5.8640  -27.3860   38.6570   C 0  0  0  0  0  0  0  0  0  0  0  0
    7.0040  -27.6710   39.6460   C 0  0  0  0  0  0  0  0  0  0  0  0
    5.9350  -28.4260   37.5280   C 0  0  0  0  0  0  0  0  0  0  0  0
    4.8350  -28.2580   36.4950   C 0  0  0  0  0  0  0  0  0  0  0  0
    4.8600  -26.8500   35.9340   C 0  0  0  0  0  0  0  0  0  0  0  0
    3.5550  -28.4830   37.1580   O 0  0  0  0  0  0  0  0  0  0  0  0
  1  2  2  0  0  0  0
  2  3  1  0  0  0  0
  2  4  1  0  0  0  0
  3  6  2  0  0  0  0
  4  5  1  0  0  0  0
  5  6  1  0  0  0  0
  6  7  1  0  0  0  0
  7  8  1  0  0  0  0
  7  9  1  0  0  0  0
  8 14  1  0  0  0  0
  9 10  1  0  0  0  0
  9 12  1  0  0  0  0
  9 13  1  0  0  0  0
 10 11  1  0  0  0  0
 11 18  1  0  0  0  0
 13 14  1  0  0  0  0
 13 15  1  0  0  0  0
 13 16  1  0  0  0  0
 16 17  1  0  0  0  0
 16 18  1  0  0  0  0
 17 23  1  0  0  0  0
 18 19  1  0  0  0  0
 19 20  1  0  0  0  0
 19 21  1  0  0  0  0
 19 22  1  0  0  0  0
 20 26  1  0  0  0  0
 22 23  1  0  0  0  0
 22 24  1  0  0  0  0
 24 25  1  0  0  0  0
 25 26  1  0  0  0  0
 25 27  1  0  0  0  0
M  END
>  <InstanceId>
1LNM_DTX_A_700

>  <ChemCompId>
DTX

>  <PdbId>
1LNM

>  <ChainId>
A

>  <ResidueNumber>
700

>  <InsertionCode>


>  <Model>
1

>  <AltIds>


>  <MissingHeavyAtoms>
0

>  <ObservedFormula>
C23 O4

>  <Name>
DIGITOXIGENIN

>  <SystematicName>
4-[(3S,5R,8R,9S,10S,13R,14S,17R)-3,14-dihydroxy-10,13-dimethyl-1,2,3,4,5,6,7,8,9,11,12,15,16,17-tetradecahydrocyclopenta[a]phenanthren-17-yl]-5H-furan-2-one

>  <Synonyms>
4-(3,14-DIHYDROXY-10,13-DIMETHYL-HEXADECAHYDRO-CYCLOPENTA[A]PHENANTHREN-17-YL)-5H-FURAN-2-ONE

>  <Type>
NON-POLYMER

>  <Formula>
C23 H34 O4

>  <MolecularWeight>
374.514

>  <ModifiedDate>
2011-06-04

>  <Parent>


>  <OneLetterCode>


>  <SubcomponentList>


>  <AmbiguousFlag>
N

>  <InChI>
InChI=1S/C23H34O4/c1-21-8-5-16(24)12-15(21)3-4-19-18(21)6-9-22(2)17(7-10-23(19,22)26)14-11-20(25)27-13-14/h11,15-19,24,26H,3-10,12-13H2,1-2H3/t15-,16+,17-,18+,19-,21+,22-,23+/m1/s1

>  <InChIKey>
XZTUSOXSLKTKJQ-CESUGQOBSA-N

>  <SMILES>
C[C@]12CC[C@@H](C[C@H]1CC[C@@H]3[C@@H]2CC[C@]4([C@@]3(CC[C@@H]4C5=CC(=O)OC5)O)C)O

$$$$
