6GON_8PF_A_201
  RCSB PDB08022004503D
Coordinates from PDB:6GON:A:201 Model:1 without hydrogens
 25 24  0  0  0  0            999 V2000
   13.8380   -3.3030   38.5280   C 0  0  0  0  0  0  0  0  0  0  0  0
   12.7170   -2.4900   39.1380   C 0  0  0  0  0  0  0  0  0  0  0  0
   11.3820   -3.0190   38.6620   C 0  0  0  0  0  0  0  0  0  0  0  0
   15.1500   -2.5650   38.6840   C 0  0  0  0  0  0  0  0  0  0  0  0
   10.9940   -2.6650   37.2440   C 0  0  0  0  0  0  0  0  0  0  0  0
   16.3460   -4.3640   39.5120   F 0  0  0  0  0  0  0  0  0  0  0  0
   16.3040   -3.5200   38.4730   C 0  0  0  0  0  0  0  0  0  0  0  0
   16.0650   -4.2290   37.3620   F 0  0  0  0  0  0  0  0  0  0  0  0
   17.6630   -2.8680   38.3360   C 0  0  0  0  0  0  0  0  0  0  0  0
   17.7990   -1.8990   39.2510   F 0  0  0  0  0  0  0  0  0  0  0  0
   17.7720   -2.2870   37.1340   F 0  0  0  0  0  0  0  0  0  0  0  0
   18.7750   -3.9220   38.5150   C 0  0  0  0  0  0  0  0  0  0  0  0
   19.6910   -3.5890   39.3120   O 0  0  0  0  0  0  0  0  0  0  0  0
   18.7680   -5.0270   37.9120   O 0  0  0  0  0  0  0  0  0  0  0  0
   15.2180   -1.5680   37.7930   F 0  0  0  0  0  0  0  0  0  0  0  0
   15.2240   -2.0260   39.9070   F 0  0  0  0  0  0  0  0  0  0  0  0
   13.9050   -4.4840   39.1540   F 0  0  0  0  0  0  0  0  0  0  0  0
   13.5760   -3.4930   37.2280   F 0  0  0  0  0  0  0  0  0  0  0  0
   12.8460   -1.2040   38.7860   F 0  0  0  0  0  0  0  0  0  0  0  0
   12.7500   -2.6010   40.4720   F 0  0  0  0  0  0  0  0  0  0  0  0
   10.4330   -2.5510   39.4820   F 0  0  0  0  0  0  0  0  0  0  0  0
   11.4030   -4.3540   38.7660   F 0  0  0  0  0  0  0  0  0  0  0  0
    9.8180   -3.2320   36.9470   F 0  0  0  0  0  0  0  0  0  0  0  0
   11.9320   -3.1130   36.3990   F 0  0  0  0  0  0  0  0  0  0  0  0
   10.8890   -1.3350   37.1290   F 0  0  0  0  0  0  0  0  0  0  0  0
 14 12  2  0  0  0  0
 13 12  1  0  0  0  0
 12  9  1  0  0  0  0
 11  9  1  0  0  0  0
  9 10  1  0  0  0  0
  9  7  1  0  0  0  0
  6  7  1  0  0  0  0
  7  8  1  0  0  0  0
  7  4  1  0  0  0  0
 15  4  1  0  0  0  0
  4 16  1  0  0  0  0
  4  1  1  0  0  0  0
 17  1  1  0  0  0  0
  1 18  1  0  0  0  0
  1  2  1  0  0  0  0
 19  2  1  0  0  0  0
  2 20  1  0  0  0  0
  2  3  1  0  0  0  0
 24  5  1  0  0  0  0
  3  5  1  0  0  0  0
  3 22  1  0  0  0  0
  3 21  1  0  0  0  0
  5 25  1  0  0  0  0
  5 23  1  0  0  0  0
M  END
>  <InstanceId>
6GON_8PF_A_201

>  <ChemCompId>
8PF

>  <PdbId>
6GON

>  <ChainId>
A

>  <ResidueNumber>
201

>  <InsertionCode>


>  <Model>
1

>  <AltIds>


>  <MissingHeavyAtoms>
0

>  <ObservedFormula>
C8 O2 F15

>  <Name>
pentadecafluorooctanoic acid

>  <SystematicName>
2,2,3,3,4,4,5,5,6,6,7,7,8,8,8-pentadecakis(fluoranyl)octanoic acid

>  <Synonyms>


>  <Type>
NON-POLYMER

>  <Formula>
C8 H F15 O2

>  <MolecularWeight>
414.068

>  <ModifiedDate>
2016-09-30

>  <Parent>


>  <OneLetterCode>


>  <SubcomponentList>


>  <AmbiguousFlag>
N

>  <InChI>
InChI=1S/C8HF15O2/c9-2(10,1(24)25)3(11,12)4(13,14)5(15,16)6(17,18)7(19,20)8(21,22)23/h(H,24,25)

>  <InChIKey>
SNGREZUHAYWORS-UHFFFAOYSA-N

>  <SMILES>
C(=O)(C(C(C(C(C(C(C(F)(F)F)(F)F)(F)F)(F)F)(F)F)(F)F)(F)F)O

$$$$
