4BAO_MVF_B_1287
  RCSB PDB08012021123D
Coordinates from PDB:4BAO:B:1287 Model:1 without hydrogens
 31 33  0  0  0  0            999 V2000
   18.8260  -14.4920   24.2160   C 0  0  0  0  0  0  0  0  0  0  0  0
   18.9260  -15.7910   25.0380   C 0  0  0  0  0  0  0  0  0  0  0  0
   19.4630  -15.4470   26.4360   C 0  0  0  0  0  0  0  0  0  0  0  0
   20.8600  -14.8050   26.3340   C 0  0  0  0  0  0  0  0  0  0  0  0
   20.7940  -13.4950   25.5410   C 0  0  0  0  0  0  0  0  0  0  0  0
   20.2040  -13.7840   24.1440   C 0  0  0  0  0  0  0  0  0  0  0  0
   16.9740  -15.5260   22.8620   N 0  0  0  0  0  0  0  0  0  0  0  0
   18.2640  -14.7820   22.8100   C 0  0  0  0  0  0  0  0  0  0  0  0
   17.9860  -13.4590   22.1550   C 0  0  0  0  0  0  0  0  0  0  0  0
   16.9690  -12.8750   22.4850   O 0  0  0  0  0  0  0  0  0  0  0  0
   18.7990  -12.9000   21.2270   N 0  0  0  0  0  0  0  0  0  0  0  0
   18.6330  -11.7020   20.3900   C 0  0  0  0  0  0  0  0  0  0  0  0
   17.2430  -11.8200   19.8070   C 0  0  0  0  0  0  0  0  0  0  0  0
   16.9390  -12.8630   19.2540   O 0  0  0  0  0  0  0  0  0  0  0  0
   16.3140  -10.8710   20.0530   N 0  0  0  0  0  0  0  0  0  0  0  0
   14.9510  -11.0570   19.5600   C 0  0  0  0  0  0  0  0  0  0  0  0
   13.9780  -11.0110   20.7090   C 0  0  0  0  0  0  0  0  0  0  0  0
   13.6590  -12.1700   21.4040   C 0  0  0  0  0  0  0  0  0  0  0  0
   12.7390  -12.1230   22.4440   C 0  0  0  0  0  0  0  0  0  0  0  0
   12.1560  -10.8880   22.8020   C 0  0  0  0  0  0  0  0  0  0  0  0
   12.5010   -9.7210   22.0970   C 0  0  0  0  0  0  0  0  0  0  0  0
   13.4130   -9.7910   21.0600   C 0  0  0  0  0  0  0  0  0  0  0  0
   11.1650  -10.8050   23.9070   C 0  0  0  0  0  0  0  0  0  0  0  0
   10.4330  -11.9160   24.2990   N 0  0  0  0  0  0  0  0  0  0  0  0
   10.9450   -9.6670   24.5050   N 0  0  0  0  0  0  0  0  0  0  0  0
   19.7940  -12.1380   19.4720   C 0  0  0  0  0  0  0  0  0  0  0  0
   20.0340  -13.2510   20.4970   C 0  0  0  0  0  0  0  0  0  0  0  0
   16.3960  -15.9280   21.5510   C 0  0  0  0  0  0  0  0  0  0  0  0
   14.9570  -16.3940   21.6930   C 0  0  0  0  0  0  0  0  0  0  0  0
   14.3610  -16.3550   22.7550   O 0  0  0  0  0  0  0  0  0  0  0  0
   14.3000  -16.8850   20.6250   N 0  0  0  0  0  0  0  0  0  0  0  0
  1  2  1  0  0  0  0
  1  6  1  0  0  0  0
  1  8  1  0  0  0  0
  2  3  1  0  0  0  0
  3  4  1  0  0  0  0
  4  5  1  0  0  0  0
  5  6  1  0  0  0  0
  7  8  1  0  0  0  0
  7 28  1  0  0  0  0
  8  9  1  0  0  0  0
  9 10  2  0  0  0  0
  9 11  1  0  0  0  0
 11 12  1  0  0  0  0
 11 27  1  0  0  0  0
 12 13  1  0  0  0  0
 12 26  1  0  0  0  0
 13 14  2  0  0  0  0
 13 15  1  0  0  0  0
 15 16  1  0  0  0  0
 16 17  1  0  0  0  0
 17 22  2  0  0  0  0
 17 18  1  0  0  0  0
 22 21  1  0  0  0  0
 21 20  2  0  0  0  0
 20 19  1  0  0  0  0
 20 23  1  0  0  0  0
 19 18  2  0  0  0  0
 23 25  2  0  0  0  0
 23 24  1  0  0  0  0
 26 27  1  0  0  0  0
 28 29  1  0  0  0  0
 29 30  2  0  0  0  0
 29 31  1  0  0  0  0
M  END
>  <InstanceId>
4BAO_MVF_B_1287

>  <ChemCompId>
MVF

>  <PdbId>
4BAO

>  <ChainId>
B

>  <ResidueNumber>
1287

>  <InsertionCode>


>  <Model>
1

>  <AltIds>


>  <MissingHeavyAtoms>
0

>  <ObservedFormula>
C22 N6 O3

>  <Name>
(2S)-1-[(2R)-2-[(2-azanyl-2-oxidanylidene-ethyl)amino]-2-cyclohexyl-ethanoyl]-N-[(4-carbamimidoylphenyl)methyl]azetidine-2-carboxamide

>  <SystematicName>
(2S)-1-[(2R)-2-[(2-azanyl-2-oxidanylidene-ethyl)amino]-2-cyclohexyl-ethanoyl]-N-[(4-carbamimidoylphenyl)methyl]azetidine-2-carboxamide

>  <Synonyms>


>  <Type>
non-polymer

>  <Formula>
C22 H32 N6 O3

>  <MolecularWeight>
428.528

>  <ModifiedDate>
2014-09-05

>  <Parent>


>  <OneLetterCode>


>  <SubcomponentList>


>  <AmbiguousFlag>
N

>  <InChI>
InChI=1S/C22H32N6O3/c23-18(29)13-26-19(15-4-2-1-3-5-15)22(31)28-11-10-17(28)21(30)27-12-14-6-8-16(9-7-14)20(24)25/h6-9,15,17,19,26H,1-5,10-13H2,(H2,23,29)(H3,24,25)(H,27,30)/t17-,19+/m0/s1

>  <InChIKey>
HGGAEWPXSYIPSZ-PKOBYXMFSA-N

>  <SMILES>
[H]/N=C(/c1ccc(cc1)CNC(=O)[C@@H]2CCN2C(=O)[C@@H](C3CCCCC3)NCC(=O)N)\N

$$$$
