4V01_0LI_A_1776
  RCSB PDB08012023413D
Coordinates from PDB:4V01:A:1776 Model:1 without hydrogens
 39 43  0  0  0  0            999 V2000
   87.5270   -1.0350    9.3780   N 0  0  0  0  0  0  0  0  0  0  0  0
   86.1450    0.6980   25.2140   N 0  0  0  0  0  0  0  0  0  0  0  0
   88.6280    1.5950   13.2710   C 0  0  0  0  0  0  0  0  0  0  0  0
   89.0850    2.0320   14.5640   C 0  0  0  0  0  0  0  0  0  0  0  0
   90.1840    2.8590   14.7050   C 0  0  0  0  0  0  0  0  0  0  0  0
   90.6160    3.2310   15.9590   C 0  0  0  0  0  0  0  0  0  0  0  0
   89.9700    2.7710   17.0890   C 0  0  0  0  0  0  0  0  0  0  0  0
   88.4420    1.5710   15.6940   C 0  0  0  0  0  0  0  0  0  0  0  0
   88.1410    1.2030   20.5500   C 0  0  0  0  0  0  0  0  0  0  0  0
   87.7200    1.4630   22.8920   C 0  0  0  0  0  0  0  0  0  0  0  0
   87.1200   -0.5710   21.8060   C 0  0  0  0  0  0  0  0  0  0  0  0
   86.6770   -0.3210   24.2720   C 0  0  0  0  0  0  0  0  0  0  0  0
   84.8130    1.2230   24.8390   C 0  0  0  0  0  0  0  0  0  0  0  0
   84.6190    2.4880   25.6440   C 0  0  0  0  0  0  0  0  0  0  0  0
   86.1980    0.2840   26.6470   C 0  0  0  0  0  0  0  0  0  0  0  0
   85.8320    0.2520    8.1240   C 0  0  0  0  0  0  0  0  0  0  0  0
   85.1300    1.3880    8.0900   C 0  0  0  0  0  0  0  0  0  0  0  0
   85.3960    2.3170    9.2090   C 0  0  0  0  0  0  0  0  0  0  0  0
   86.2230    2.1310   10.1880   N 0  0  0  0  0  0  0  0  0  0  0  0
   86.8770    0.9500   10.1180   N 0  0  0  0  0  0  0  0  0  0  0  0
   86.7410   -0.0030    9.1550   C 0  0  0  0  0  0  0  0  0  0  0  0
   88.1870   -0.7320   10.5420   C 0  0  0  0  0  0  0  0  0  0  0  0
   87.8060    0.4990   11.0150   C 0  0  0  0  0  0  0  0  0  0  0  0
   88.2520    1.1390   12.2180   C 0  0  0  0  0  0  0  0  0  0  0  0
   88.8810    1.9390   16.9460   C 0  0  0  0  0  0  0  0  0  0  0  0
   90.8980    3.3380   13.4960   C 0  0  0  0  0  0  0  0  0  0  0  0
   88.1480    1.4090   18.1140   C 0  0  0  0  0  0  0  0  0  0  0  0
   87.1850    0.6870   17.9100   O 0  0  0  0  0  0  0  0  0  0  0  0
   88.6400    1.7560   19.3560   N 0  0  0  0  0  0  0  0  0  0  0  0
   88.1960    1.9660   21.6990   C 0  0  0  0  0  0  0  0  0  0  0  0
   87.1790    0.1930   22.9590   C 0  0  0  0  0  0  0  0  0  0  0  0
   87.6020   -0.0650   20.6150   C 0  0  0  0  0  0  0  0  0  0  0  0
   86.5530   -1.9500   21.8310   C 0  0  0  0  0  0  0  0  0  0  0  0
   87.2060   -2.7300   22.7220   F 0  0  0  0  0  0  0  0  0  0  0  0
   85.2390   -2.0060   22.1320   F 0  0  0  0  0  0  0  0  0  0  0  0
   86.6350   -2.6340   20.6690   F 0  0  0  0  0  0  0  0  0  0  0  0
   85.8220    1.4380   27.5690   C 0  0  0  0  0  0  0  0  0  0  0  0
   84.0810    3.1610   27.9440   C 0  0  0  0  0  0  0  0  0  0  0  0
   84.5730    2.0690   27.0750   N 0  0  0  0  0  0  0  0  0  0  0  0
  1 21  2  0  0  0  0
  1 22  1  0  0  0  0
  2 12  1  0  0  0  0
  2 13  1  0  0  0  0
  2 15  1  0  0  0  0
  3  4  1  0  0  0  0
  3 24  3  0  0  0  0
  4  5  2  0  0  0  0
  4  8  1  0  0  0  0
  5  6  1  0  0  0  0
  5 26  1  0  0  0  0
  6  7  2  0  0  0  0
  7 25  1  0  0  0  0
  8 25  2  0  0  0  0
  9 29  1  0  0  0  0
  9 30  2  0  0  0  0
  9 32  1  0  0  0  0
 10 30  1  0  0  0  0
 10 31  2  0  0  0  0
 11 31  1  0  0  0  0
 11 32  2  0  0  0  0
 11 33  1  0  0  0  0
 12 31  1  0  0  0  0
 13 14  1  0  0  0  0
 14 39  1  0  0  0  0
 15 37  1  0  0  0  0
 16 17  2  0  0  0  0
 16 21  1  0  0  0  0
 17 18  1  0  0  0  0
 18 19  2  0  0  0  0
 19 20  1  0  0  0  0
 20 21  1  0  0  0  0
 20 23  1  0  0  0  0
 22 23  2  0  0  0  0
 23 24  1  0  0  0  0
 25 27  1  0  0  0  0
 27 28  2  0  0  0  0
 27 29  1  0  0  0  0
 33 34  1  0  0  0  0
 33 35  1  0  0  0  0
 33 36  1  0  0  0  0
 37 39  1  0  0  0  0
 38 39  1  0  0  0  0
M  END
>  <InstanceId>
4V01_0LI_A_1776

>  <ChemCompId>
0LI

>  <PdbId>
4V01

>  <ChainId>
A

>  <ResidueNumber>
1776

>  <InsertionCode>


>  <Model>
1

>  <AltIds>


>  <MissingHeavyAtoms>
0

>  <ObservedFormula>
C29 N6 O F3

>  <Name>
3-(imidazo[1,2-b]pyridazin-3-ylethynyl)-4-methyl-N-{4-[(4-methylpiperazin-1-yl)methyl]-3-(trifluoromethyl)phenyl}benzam ide

>  <SystematicName>
3-(2-imidazo[1,2-b]pyridazin-3-ylethynyl)-4-methyl-N-[4-[(4-methylpiperazin-1-yl)methyl]-3-(trifluoromethyl)phenyl]benzamide

>  <Synonyms>
Ponatinib

>  <Type>
NON-POLYMER

>  <Formula>
C29 H27 F3 N6 O

>  <MolecularWeight>
532.559

>  <ModifiedDate>
2020-06-17

>  <Parent>


>  <OneLetterCode>


>  <SubcomponentList>


>  <AmbiguousFlag>
N

>  <InChI>
InChI=1S/C29H27F3N6O/c1-20-5-6-22(16-21(20)8-10-25-18-33-27-4-3-11-34-38(25)27)28(39)35-24-9-7-23(26(17-24)29(30,31)32)19-37-14-12-36(2)13-15-37/h3-7,9,11,16-18H,12-15,19H2,1-2H3,(H,35,39)

>  <InChIKey>
PHXJVRSECIGDHY-UHFFFAOYSA-N

>  <SMILES>
Cc1ccc(cc1C#Cc2cnc3n2nccc3)C(=O)Nc4ccc(c(c4)C(F)(F)F)CN5CCN(CC5)C

$$$$
