2B9A_FBC_A_301
  RCSB PDB08012016403D
Coordinates from PDB:2B9A:A:301 Model:1 without hydrogens
 17 18  0  0  0  0            999 V2000
   22.7340   82.8840   59.9470   F 0  0  0  0  0  0  0  0  0  0  0  0
   22.0950   83.8580   59.2630   C 0  0  0  0  0  0  0  0  0  0  0  0
   21.4220   84.8600   59.9560   C 0  0  0  0  0  0  0  0  0  0  0  0
   20.7760   85.8670   59.2660   C 0  0  0  0  0  0  0  0  0  0  0  0
   20.1340   86.8450   59.9490   F 0  0  0  0  0  0  0  0  0  0  0  0
   20.7900   85.8590   57.8660   C 0  0  0  0  0  0  0  0  0  0  0  0
   22.0990   83.8580   57.8580   C 0  0  0  0  0  0  0  0  0  0  0  0
   21.4450   84.8600   57.1350   C 0  0  0  0  0  0  0  0  0  0  0  0
   21.4350   84.8890   55.7250   C 0  0  0  0  0  0  0  0  0  0  0  0
   21.4260   86.1190   55.0720   C 0  0  0  0  0  0  0  0  0  0  0  0
   21.4250   86.2080   53.6830   C 0  0  0  0  0  0  0  0  0  0  0  0
   21.4240   83.7290   54.9180   C 0  0  0  0  0  0  0  0  0  0  0  0
   21.3970   83.8130   53.5140   C 0  0  0  0  0  0  0  0  0  0  0  0
   21.4070   85.0670   52.8960   C 0  0  0  0  0  0  0  0  0  0  0  0
   21.4230   85.2230   51.3940   C 0  0  0  0  0  0  0  0  0  0  0  0
   20.4420   85.7630   50.8460   O 0  0  0  0  0  0  0  0  0  0  0  0
   22.3720   84.7990   50.6870   O 0  0  0  0  0  0  0  0  0  0  0  0
  1  2  1  0  0  0  0
  2  3  2  0  0  0  0
  2  7  1  0  0  0  0
  3  4  1  0  0  0  0
  4  5  1  0  0  0  0
  4  6  2  0  0  0  0
  6  8  1  0  0  0  0
  7  8  2  0  0  0  0
  8  9  1  0  0  0  0
  9 10  2  0  0  0  0
  9 12  1  0  0  0  0
 10 11  1  0  0  0  0
 11 14  2  0  0  0  0
 12 13  2  0  0  0  0
 13 14  1  0  0  0  0
 14 15  1  0  0  0  0
 15 16  2  0  0  0  0
 15 17  1  0  0  0  0
M  END
>  <InstanceId>
2B9A_FBC_A_301

>  <ChemCompId>
FBC

>  <PdbId>
2B9A

>  <ChainId>
A

>  <ResidueNumber>
301

>  <InsertionCode>


>  <Model>
1

>  <AltIds>


>  <MissingHeavyAtoms>
0

>  <ObservedFormula>
C13 O2 F2

>  <Name>
3',5'-DIFLUOROBIPHENYL-4-CARBOXYLIC ACID

>  <SystematicName>
4-(3,5-difluorophenyl)benzoic acid

>  <Synonyms>


>  <Type>
NON-POLYMER

>  <Formula>
C13 H8 F2 O2

>  <MolecularWeight>
234.198

>  <ModifiedDate>
2011-06-04

>  <Parent>


>  <OneLetterCode>


>  <SubcomponentList>


>  <AmbiguousFlag>
N

>  <InChI>
InChI=1S/C13H8F2O2/c14-11-5-10(6-12(15)7-11)8-1-3-9(4-2-8)13(16)17/h1-7H,(H,16,17)

>  <InChIKey>
VCEFNMHMLWBFNV-UHFFFAOYSA-N

>  <SMILES>
c1cc(ccc1c2cc(cc(c2)F)F)C(=O)O

$$$$
