3R1V_AZB_A_128
  RCSB PDB08012020183D
Coordinates from PDB:3R1V:A:128 Model:1 without hydrogens
 18 19  0  0  0  0            999 V2000
    0.9940   -5.4080   13.8280   C 0  0  0  0  0  0  0  0  0  0  0  0
    6.5190   -4.8930   17.2430   N 0  0  0  0  0  0  0  0  0  0  0  0
   11.8140   -4.7130   20.9100   O 0  0  0  0  0  0  0  0  0  0  0  0
    6.7490   -4.2830   18.3640   N 0  0  0  0  0  0  0  0  0  0  0  0
    2.3440   -3.6600   12.5510   C 0  0  0  0  0  0  0  0  0  0  0  0
    8.9690   -5.4980   18.7280   C 0  0  0  0  0  0  0  0  0  0  0  0
   10.2540   -5.5820   19.4070   C 0  0  0  0  0  0  0  0  0  0  0  0
   10.6400   -4.6420   20.3010   C 0  0  0  0  0  0  0  0  0  0  0  0
    9.7500   -3.6380   20.5270   C 0  0  0  0  0  0  0  0  0  0  0  0
    8.4340   -3.5640   19.8270   C 0  0  0  0  0  0  0  0  0  0  0  0
    8.0430   -4.4920   18.9390   C 0  0  0  0  0  0  0  0  0  0  0  0
    3.2380   -3.6980   15.9130   C 0  0  0  0  0  0  0  0  0  0  0  0
    4.3510   -3.8290   16.7840   C 0  0  0  0  0  0  0  0  0  0  0  0
    5.4400   -4.7520   16.4410   C 0  0  0  0  0  0  0  0  0  0  0  0
    5.3690   -5.5310   15.2300   C 0  0  0  0  0  0  0  0  0  0  0  0
    4.1980   -5.3760   14.3300   C 0  0  0  0  0  0  0  0  0  0  0  0
    3.1530   -4.4530   14.7080   C 0  0  0  0  0  0  0  0  0  0  0  0
    1.9400   -4.2390   13.8600   C 0  0  0  0  0  0  0  0  0  0  0  0
  1 18  1  0  0  0  0
  2  4  2  0  0  0  0
  2 14  1  0  0  0  0
  3  8  1  0  0  0  0
  4 11  1  0  0  0  0
  5 18  1  0  0  0  0
  6  7  2  0  0  0  0
  6 11  1  0  0  0  0
  7  8  1  0  0  0  0
  8  9  2  0  0  0  0
  9 10  1  0  0  0  0
 10 11  2  0  0  0  0
 12 13  2  0  0  0  0
 12 17  1  0  0  0  0
 13 14  1  0  0  0  0
 14 15  2  0  0  0  0
 15 16  1  0  0  0  0
 16 17  2  0  0  0  0
 17 18  1  0  0  0  0
M  END
>  <InstanceId>
3R1V_AZB_A_128

>  <ChemCompId>
AZB

>  <PdbId>
3R1V

>  <ChainId>
A

>  <ResidueNumber>
128

>  <InsertionCode>


>  <Model>
1

>  <AltIds>


>  <MissingHeavyAtoms>
0

>  <ObservedFormula>
C15 N2 O

>  <Name>
4-{(E)-[4-(propan-2-yl)phenyl]diazenyl}phenol

>  <SystematicName>
4-[(E)-(4-propan-2-ylphenyl)diazenyl]phenol

>  <Synonyms>


>  <Type>
NON-POLYMER

>  <Formula>
C15 H16 N2 O

>  <MolecularWeight>
240.3

>  <ModifiedDate>
2011-10-14

>  <Parent>


>  <OneLetterCode>


>  <SubcomponentList>


>  <AmbiguousFlag>
N

>  <InChI>
InChI=1S/C15H16N2O/c1-11(2)12-3-5-13(6-4-12)16-17-14-7-9-15(18)10-8-14/h3-11,18H,1-2H3/b17-16+

>  <InChIKey>
NQJVTPMZGHHWGR-WUKNDPDISA-N

>  <SMILES>
CC(C)c1ccc(cc1)/N=N/c2ccc(cc2)O

$$$$
