6F3B_CJK_A_302
  RCSB PDB08022004363D
Coordinates from PDB:6F3B:A:302 Model:1 without hydrogens
 23 24  0  0  0  0            999 V2000
    6.6430   35.9820   11.0560   C 0  0  0  0  0  0  0  0  0  0  0  0
    8.0670   36.2700   13.1200   C 0  0  0  0  0  0  0  0  0  0  0  0
    8.1420   34.6180   14.8770   C 0  0  0  0  0  0  0  0  0  0  0  0
    7.2940   33.8240   14.1210   C 0  0  0  0  0  0  0  0  0  0  0  0
    6.8230   34.2570   12.8910   C 0  0  0  0  0  0  0  0  0  0  0  0
    8.5870   34.1890   16.2530   C 0  0  0  0  0  0  0  0  0  0  0  0
   10.9750   33.6750   16.0750   C 0  0  0  0  0  0  0  0  0  0  0  0
   12.2450   34.0810   16.4100   N 0  0  0  0  0  0  0  0  0  0  0  0
   12.6660   35.3160   16.9690   C 0  0  0  0  0  0  0  0  0  0  0  0
   13.2870   35.3320   18.2250   C 0  0  0  0  0  0  0  0  0  0  0  0
   13.7450   36.5380   18.7410   C 0  0  0  0  0  0  0  0  0  0  0  0
   13.6040   37.7210   18.0280   C 0  0  0  0  0  0  0  0  0  0  0  0
   12.9680   37.7060   16.7930   C 0  0  0  0  0  0  0  0  0  0  0  0
   12.5010   36.5110   16.2540   C 0  0  0  0  0  0  0  0  0  0  0  0
   14.6070   35.2250   20.8060   O 0  0  0  0  0  0  0  0  0  0  0  0
    7.1950   35.4900   12.3720   C 0  0  0  0  0  0  0  0  0  0  0  0
    8.5280   35.8470   14.3550   C 0  0  0  0  0  0  0  0  0  0  0  0
    9.9880   34.4880   16.5090   N 0  0  0  0  0  0  0  0  0  0  0  0
   10.7550   32.6420   15.4440   O 0  0  0  0  0  0  0  0  0  0  0  0
   11.9040   36.4750   15.0150   O 0  0  0  0  0  0  0  0  0  0  0  0
   14.5140   36.5740   20.3350   S 0  0  0  0  0  0  0  0  0  0  0  0
   13.8030   37.5300   21.1270   O 0  0  0  0  0  0  0  0  0  0  0  0
   16.0230   37.1260   20.1410   N 0  0  0  0  0  0  0  0  0  0  0  0
  1 16  1  0  0  0  0
 16  5  2  0  0  0  0
 16  2  1  0  0  0  0
  5  4  1  0  0  0  0
  2 17  2  0  0  0  0
  4  3  2  0  0  0  0
 17  3  1  0  0  0  0
  3  6  1  0  0  0  0
 20 14  1  0  0  0  0
 19  7  2  0  0  0  0
  7  8  1  0  0  0  0
  7 18  1  0  0  0  0
  6 18  1  0  0  0  0
 14 13  2  0  0  0  0
 14  9  1  0  0  0  0
  8  9  1  0  0  0  0
 13 12  1  0  0  0  0
  9 10  2  0  0  0  0
 12 11  2  0  0  0  0
 10 11  1  0  0  0  0
 11 21  1  0  0  0  0
 23 21  1  0  0  0  0
 21 15  2  0  0  0  0
 21 22  2  0  0  0  0
M  END
>  <InstanceId>
6F3B_CJK_A_302

>  <ChemCompId>
CJK

>  <PdbId>
6F3B

>  <ChainId>
A

>  <ResidueNumber>
302

>  <InsertionCode>


>  <Model>
1

>  <AltIds>


>  <MissingHeavyAtoms>
0

>  <ObservedFormula>
C15 N3 O4 S

>  <Name>
1-[(4-methylphenyl)methyl]-3-(2-oxidanyl-5-sulfamoyl-phenyl)urea

>  <SystematicName>
1-[(4-methylphenyl)methyl]-3-(2-oxidanyl-5-sulfamoyl-phenyl)urea

>  <Synonyms>


>  <Type>
NON-POLYMER

>  <Formula>
C15 H17 N3 O4 S

>  <MolecularWeight>
335.378

>  <ModifiedDate>
2018-10-05

>  <Parent>


>  <OneLetterCode>


>  <SubcomponentList>


>  <AmbiguousFlag>
N

>  <InChI>
InChI=1S/C15H17N3O4S/c1-10-2-4-11(5-3-10)9-17-15(20)18-13-8-12(23(16,21)22)6-7-14(13)19/h2-8,19H,9H2,1H3,(H2,16,21,22)(H2,17,18,20)

>  <InChIKey>
WPPWDFYGZHFOAE-UHFFFAOYSA-N

>  <SMILES>
Cc1ccc(cc1)CNC(=O)Nc2cc(ccc2O)S(=O)(=O)N

$$$$
