6GJN_F0Q_A_201
  RCSB PDB08022004493D
Coordinates from PDB:6GJN:A:201 Model:1 without hydrogens
 34 37  0  0  0  0            999 V2000
    0.8560   17.2910   -6.0060   O 0  0  0  0  0  0  0  0  0  0  0  0
    0.0180   18.0120   -5.5560   C 0  0  0  0  0  0  0  0  0  0  0  0
   -0.3270   19.0650   -6.2520   N 0  0  0  0  0  0  0  0  0  0  0  0
   -1.2380   20.0660   -5.8130   C 0  0  0  0  0  0  0  0  0  0  0  0
   -2.4980   20.2780   -6.6380   C 0  0  0  0  0  0  0  0  0  0  0  0
   -3.2870   19.2030   -6.9640   C 0  0  0  0  0  0  0  0  0  0  0  0
   -4.4460   19.3800   -7.6660   C 0  0  0  0  0  0  0  0  0  0  0  0
   -4.8690   20.6220   -8.0360   C 0  0  0  0  0  0  0  0  0  0  0  0
   -6.0110   20.7540   -8.7070   N 0  0  0  0  0  0  0  0  0  0  0  0
   -4.0950   21.7190   -7.7350   C 0  0  0  0  0  0  0  0  0  0  0  0
   -2.9310   21.5340   -7.0150   C 0  0  0  0  0  0  0  0  0  0  0  0
    0.1780   19.3450   -7.5890   C 0  0  0  0  0  0  0  0  0  0  0  0
    1.6900   19.4340   -7.6000   C 0  0  0  0  0  0  0  0  0  0  0  0
    2.4760   18.7880   -8.4690   N 0  0  0  0  0  0  0  0  0  0  0  0
    3.8150   19.0690   -8.2590   N 0  0  0  0  0  0  0  0  0  0  0  0
    3.7610   19.9340   -7.2100   N 0  0  0  0  0  0  0  0  0  0  0  0
    4.9640   20.5280   -6.5960   C 0  0  0  0  0  0  0  0  0  0  0  0
    2.4650   20.1590   -6.7710   N 0  0  0  0  0  0  0  0  0  0  0  0
   -0.5040   17.7730   -4.4450   N 0  0  0  0  0  0  0  0  0  0  0  0
   -0.1900   16.5900   -3.6420   C 0  0  0  0  0  0  0  0  0  0  0  0
   -0.8040   15.4060   -4.3620   C 0  0  0  0  0  0  0  0  0  0  0  0
   -1.9100   15.5230   -4.8030   O 0  0  0  0  0  0  0  0  0  0  0  0
   -0.1380   14.2330   -4.4900   N 0  0  0  0  0  0  0  0  0  0  0  0
   -0.8010   13.0370   -4.9680   C 0  0  0  0  0  0  0  0  0  0  0  0
    0.2770   11.9720   -5.0200   C 0  0  0  0  0  0  0  0  0  0  0  0
    1.5910   12.7040   -5.0280   C 0  0  0  0  0  0  0  0  0  0  0  0
    1.2950   13.9650   -4.2650   C 0  0  0  0  0  0  0  0  0  0  0  0
    1.6050   13.7380   -2.8380   C 0  0  0  0  0  0  0  0  0  0  0  0
    2.8970   13.7640   -2.3990   C 0  0  0  0  0  0  0  0  0  0  0  0
    4.3240   14.0400   -3.5740  Br 0  0  0  0  0  0  0  0  0  0  0  0
    0.6070   13.4790   -1.9340   C 0  0  0  0  0  0  0  0  0  0  0  0
    0.9210   13.3040   -0.6020   C 0  0  0  0  0  0  0  0  0  0  0  0
    2.2290   13.3510   -0.1770   C 0  0  0  0  0  0  0  0  0  0  0  0
    3.2120   13.6060   -1.0800   C 0  0  0  0  0  0  0  0  0  0  0  0
  9  8  1  0  0  0  0
 14 15  2  0  0  0  0
 14 13  1  0  0  0  0
 15 16  1  0  0  0  0
  8 10  2  0  0  0  0
  8  7  1  0  0  0  0
 10 11  1  0  0  0  0
  7  6  2  0  0  0  0
 13 12  1  0  0  0  0
 13 18  2  0  0  0  0
 12  3  1  0  0  0  0
 16 18  1  0  0  0  0
 16 17  1  0  0  0  0
 11  5  2  0  0  0  0
  6  5  1  0  0  0  0
  5  4  1  0  0  0  0
  3  4  1  0  0  0  0
  3  2  1  0  0  0  0
  1  2  2  0  0  0  0
  2 19  1  0  0  0  0
 26 25  1  0  0  0  0
 26 27  1  0  0  0  0
 25 24  1  0  0  0  0
 24 23  1  0  0  0  0
 22 21  2  0  0  0  0
 23 21  1  0  0  0  0
 23 27  1  0  0  0  0
 19 20  1  0  0  0  0
 21 20  1  0  0  0  0
 27 28  1  0  0  0  0
 30 29  1  0  0  0  0
 28 29  2  0  0  0  0
 28 31  1  0  0  0  0
 29 34  1  0  0  0  0
 31 32  2  0  0  0  0
 34 33  2  0  0  0  0
 32 33  1  0  0  0  0
M  END
>  <InstanceId>
6GJN_F0Q_A_201

>  <ChemCompId>
F0Q

>  <PdbId>
6GJN

>  <ChainId>
A

>  <ResidueNumber>
201

>  <InsertionCode>


>  <Model>
1

>  <AltIds>


>  <MissingHeavyAtoms>
0

>  <ObservedFormula>
C23 N8 O2 Br

>  <Name>
1-[(4-aminophenyl)methyl]-3-[2-[(2~{R})-2-(2-bromophenyl)pyrrolidin-1-yl]-2-oxidanylidene-ethyl]-1-[(2-methyl-1,2,3,4-tetrazol-5-yl)methyl]urea

>  <SystematicName>
1-[(4-aminophenyl)methyl]-3-[2-[(2~{R})-2-(2-bromophenyl)pyrrolidin-1-yl]-2-oxidanylidene-ethyl]-1-[(2-methyl-1,2,3,4-tetrazol-5-yl)methyl]urea

>  <Synonyms>


>  <Type>
NON-POLYMER

>  <Formula>
C23 H27 Br N8 O2

>  <MolecularWeight>
527.417

>  <ModifiedDate>
2018-11-02

>  <Parent>


>  <OneLetterCode>


>  <SubcomponentList>


>  <AmbiguousFlag>
N

>  <InChI>
InChI=1S/C23H27BrN8O2/c1-30-28-21(27-29-30)15-31(14-16-8-10-17(25)11-9-16)23(34)26-13-22(33)32-12-4-7-20(32)18-5-2-3-6-19(18)24/h2-3,5-6,8-11,20H,4,7,12-15,25H2,1H3,(H,26,34)/t20-/m1/s1

>  <InChIKey>
DZZMUGFFAZZVFF-HXUWFJFHSA-N

>  <SMILES>
Cn1nc(nn1)CN(Cc2ccc(cc2)N)C(=O)NCC(=O)N3CCC[C@@H]3c4ccccc4Br

$$$$
