5LDM_2AM_A_201
  RCSB PDB08022002103D
Coordinates from PDB:5LDM:A:201 Model:1 without hydrogens
 23 25  0  0  0  0            999 V2000
   17.8640  -29.6170   20.6770   P 0  0  0  0  0  0  0  0  0  0  0  0
   17.1370  -30.5840   19.7700   O 0  0  0  0  0  0  0  0  0  0  0  0
   16.8710  -28.9200   21.5780   O 0  0  0  0  0  0  0  0  0  0  0  0
   18.6150  -28.6010   19.8520   O 0  0  0  0  0  0  0  0  0  0  0  0
   21.8820  -33.5030   19.4200   C 0  0  0  0  0  0  0  0  0  0  0  0
   22.7190  -32.4380   19.0330   O 0  0  0  0  0  0  0  0  0  0  0  0
   21.0330  -33.0770   20.6060   C 0  0  0  0  0  0  0  0  0  0  0  0
   21.8230  -32.4410   21.5930   O 0  0  0  0  0  0  0  0  0  0  0  0
   19.9540  -32.0940   20.1890   C 0  0  0  0  0  0  0  0  0  0  0  0
   18.6890  -32.6810   20.3990   O 0  0  0  0  0  0  0  0  0  0  0  0
   20.1630  -30.8650   21.0580   C 0  0  0  0  0  0  0  0  0  0  0  0
   18.9370  -30.4070   21.5850   O 0  0  0  0  0  0  0  0  0  0  0  0
   21.1210  -31.3380   22.1430   C 0  0  0  0  0  0  0  0  0  0  0  0
   22.0660  -30.3040   22.6240   N 0  0  0  0  0  0  0  0  0  0  0  0
   21.9840  -29.6390   23.8200   C 0  0  0  0  0  0  0  0  0  0  0  0
   23.0340  -28.7880   23.9200   N 0  0  0  0  0  0  0  0  0  0  0  0
   23.7940  -28.9040   22.8120   C 0  0  0  0  0  0  0  0  0  0  0  0
   24.9660  -28.2710   22.4110   C 0  0  0  0  0  0  0  0  0  0  0  0
   25.5480  -27.3570   23.1870   N 0  0  0  0  0  0  0  0  0  0  0  0
   25.5250  -28.6010   21.1940   N 0  0  0  0  0  0  0  0  0  0  0  0
   24.9200  -29.5490   20.3920   C 0  0  0  0  0  0  0  0  0  0  0  0
   23.7600  -30.1700   20.8030   N 0  0  0  0  0  0  0  0  0  0  0  0
   23.2020  -29.8580   21.9930   C 0  0  0  0  0  0  0  0  0  0  0  0
  1  2  2  0  0  0  0
  1  3  1  0  0  0  0
  1  4  1  0  0  0  0
  1 12  1  0  0  0  0
  5  6  1  0  0  0  0
  5  7  1  0  0  0  0
  7  8  1  0  0  0  0
  7  9  1  0  0  0  0
  8 13  1  0  0  0  0
  9 10  1  0  0  0  0
  9 11  1  0  0  0  0
 11 12  1  0  0  0  0
 11 13  1  0  0  0  0
 13 14  1  0  0  0  0
 14 15  1  0  0  0  0
 14 23  1  0  0  0  0
 15 16  2  0  0  0  0
 16 17  1  0  0  0  0
 17 18  1  0  0  0  0
 17 23  2  0  0  0  0
 18 19  1  0  0  0  0
 18 20  2  0  0  0  0
 20 21  1  0  0  0  0
 21 22  2  0  0  0  0
 22 23  1  0  0  0  0
M  END
>  <InstanceId>
5LDM_2AM_A_201

>  <ChemCompId>
2AM

>  <PdbId>
5LDM

>  <ChainId>
A

>  <ResidueNumber>
201

>  <InsertionCode>


>  <Model>
1

>  <AltIds>


>  <MissingHeavyAtoms>
0

>  <ObservedFormula>
C10 N5 O7 P

>  <Name>
ADENOSINE-2'-MONOPHOSPHATE

>  <SystematicName>
[(2R,3R,4R,5R)-2-(6-aminopurin-9-yl)-4-hydroxy-5-(hydroxymethyl)oxolan-3-yl] dihydrogen phosphate

>  <Synonyms>


>  <Type>
NON-POLYMER

>  <Formula>
C10 H14 N5 O7 P

>  <MolecularWeight>
347.221

>  <ModifiedDate>
2011-06-04

>  <Parent>


>  <OneLetterCode>


>  <SubcomponentList>


>  <AmbiguousFlag>
N

>  <InChI>
InChI=1S/C10H14N5O7P/c11-8-5-9(13-2-12-8)15(3-14-5)10-7(22-23(18,19)20)6(17)4(1-16)21-10/h2-4,6-7,10,16-17H,1H2,(H2,11,12,13)(H2,18,19,20)/t4-,6-,7-,10-/m1/s1

>  <InChIKey>
QDFHPFSBQFLLSW-KQYNXXCUSA-N

>  <SMILES>
c1nc(c2c(n1)n(cn2)[C@H]3[C@@H]([C@@H]([C@H](O3)CO)O)OP(=O)(O)O)N

$$$$
