5FDI_5WM_A_302
  RCSB PDB08022001213D
Coordinates from PDB:5FDI:A:302 Model:1 without hydrogens
 17 18  0  0  0  0            999 V2000
   -6.8680    1.0870   16.3020   O 0  0  0  0  0  0  0  0  0  0  0  0
   -4.8070    1.2910   17.6170   O 0  0  0  0  0  0  0  0  0  0  0  0
   -5.5850    3.1000   14.6960   C 0  0  0  0  0  0  0  0  0  0  0  0
   -4.7050    4.1260   14.0460   C 0  0  0  0  0  0  0  0  0  0  0  0
   -5.2900    5.2360   13.2330   C 0  0  0  0  0  0  0  0  0  0  0  0
   -6.6400    5.5330   12.9340   C 0  0  0  0  0  0  0  0  0  0  0  0
   -6.9600    6.6500   12.1270   C 0  0  0  0  0  0  0  0  0  0  0  0
   -5.9550    7.4810   11.6070   C 0  0  0  0  0  0  0  0  0  0  0  0
   -4.5860    7.2160   11.8880   C 0  0  0  0  0  0  0  0  0  0  0  0
   -4.2910    6.0930   12.6990   C 0  0  0  0  0  0  0  0  0  0  0  0
   -3.3870    4.1620   14.1120   C 0  0  0  0  0  0  0  0  0  0  0  0
   -5.4380    0.9130   16.3830   S 0  0  0  0  0  0  0  0  0  0  0  0
   -5.0650   -0.5830   16.0760   N 0  0  0  0  0  0  0  0  0  0  0  0
   -4.8180    1.8680   15.1660   N 0  0  0  0  0  0  0  0  0  0  0  0
   -2.7130    5.5070   13.2160   S 0  0  0  0  0  0  0  0  0  0  0  0
   -2.1140    6.4700   14.1100   O 0  0  0  0  0  0  0  0  0  0  0  0
   -1.9430    5.0390   12.0810   O 0  0  0  0  0  0  0  0  0  0  0  0
  8  9  2  0  0  0  0
  8  7  1  0  0  0  0
  9 10  1  0  0  0  0
 17 15  2  0  0  0  0
  7  6  2  0  0  0  0
 10 15  1  0  0  0  0
 10  5  2  0  0  0  0
  6  5  1  0  0  0  0
 15 16  2  0  0  0  0
 15 11  1  0  0  0  0
  5  4  1  0  0  0  0
  4 11  2  0  0  0  0
  4  3  1  0  0  0  0
  3 14  1  0  0  0  0
 14 12  1  0  0  0  0
 13 12  1  0  0  0  0
  1 12  2  0  0  0  0
 12  2  2  0  0  0  0
M  END
>  <InstanceId>
5FDI_5WM_A_302

>  <ChemCompId>
5WM

>  <PdbId>
5FDI

>  <ChainId>
A

>  <ResidueNumber>
302

>  <InsertionCode>


>  <Model>
1

>  <AltIds>


>  <MissingHeavyAtoms>
0

>  <ObservedFormula>
C9 N2 O4 S2

>  <Name>
1,1-bis(oxidanylidene)-3-[(sulfamoylamino)methyl]-1-benzothiophene

>  <SystematicName>
1,1-bis(oxidanylidene)-3-[(sulfamoylamino)methyl]-1-benzothiophene

>  <Synonyms>


>  <Type>
NON-POLYMER

>  <Formula>
C9 H10 N2 O4 S2

>  <MolecularWeight>
274.317

>  <ModifiedDate>
2016-05-13

>  <Parent>


>  <OneLetterCode>


>  <SubcomponentList>


>  <AmbiguousFlag>
N

>  <InChI>
InChI=1S/C9H10N2O4S2/c10-17(14,15)11-5-7-6-16(12,13)9-4-2-1-3-8(7)9/h1-4,6,11H,5H2,(H2,10,14,15)

>  <InChIKey>
KCPWPUJVAMOFBB-UHFFFAOYSA-N

>  <SMILES>
c1ccc2c(c1)C(=CS2(=O)=O)CNS(=O)(=O)N

$$$$
