6RNT_2AM_A_105
  RCSB PDB08022006223D
Coordinates from PDB:6RNT:A:105 Model:1 without hydrogens
 23 25  0  0  0  0            999 V2000
   19.6670   13.8280    1.3770   P 0  0  0  0  0  0  0  0  0  0  0  0
   18.3820   14.4730    1.2140   O 0  0  0  0  0  0  0  0  0  0  0  0
   20.8080   14.4870    1.9610   O 0  0  0  0  0  0  0  0  0  0  0  0
   19.7300   12.3840    1.8180   O 0  0  0  0  0  0  0  0  0  0  0  0
   24.2320   14.3790   -2.5090   C 0  0  0  0  0  0  0  0  0  0  0  0
   24.9010   13.9850   -1.2850   O 0  0  0  0  0  0  0  0  0  0  0  0
   22.8470   13.7720   -2.5210   C 0  0  0  0  0  0  0  0  0  0  0  0
   22.8640   12.3600   -2.0880   O 0  0  0  0  0  0  0  0  0  0  0  0
   21.8520   14.6060   -1.6310   C 0  0  0  0  0  0  0  0  0  0  0  0
   20.6810   15.0010   -2.3770   O 0  0  0  0  0  0  0  0  0  0  0  0
   21.4830   13.4520   -0.6570   C 0  0  0  0  0  0  0  0  0  0  0  0
   20.1630   13.6280   -0.1880   O 0  0  0  0  0  0  0  0  0  0  0  0
   21.6040   12.1450   -1.4110   C 0  0  0  0  0  0  0  0  0  0  0  0
   21.7510   10.9030   -0.6290   N 0  0  0  0  0  0  0  0  0  0  0  0
   22.5990   10.6230    0.4300   C 0  0  0  0  0  0  0  0  0  0  0  0
   22.6320    9.3420    0.7560   N 0  0  0  0  0  0  0  0  0  0  0  0
   21.7210    8.7570   -0.1050   C 0  0  0  0  0  0  0  0  0  0  0  0
   21.3360    7.3840   -0.1210   C 0  0  0  0  0  0  0  0  0  0  0  0
   21.6480    6.5340    0.7520   N 0  0  0  0  0  0  0  0  0  0  0  0
   20.5410    7.0930   -1.2200   N 0  0  0  0  0  0  0  0  0  0  0  0
   20.1580    8.0700   -2.1250   C 0  0  0  0  0  0  0  0  0  0  0  0
   20.4480    9.4030   -2.0900   N 0  0  0  0  0  0  0  0  0  0  0  0
   21.3800    9.6440   -1.1130   C 0  0  0  0  0  0  0  0  0  0  0  0
  1  2  2  0  0  0  0
  1  3  1  0  0  0  0
  1  4  1  0  0  0  0
  1 12  1  0  0  0  0
  5  6  1  0  0  0  0
  5  7  1  0  0  0  0
  7  8  1  0  0  0  0
  7  9  1  0  0  0  0
  8 13  1  0  0  0  0
  9 10  1  0  0  0  0
  9 11  1  0  0  0  0
 11 12  1  0  0  0  0
 11 13  1  0  0  0  0
 13 14  1  0  0  0  0
 14 15  1  0  0  0  0
 14 23  1  0  0  0  0
 15 16  2  0  0  0  0
 16 17  1  0  0  0  0
 17 18  1  0  0  0  0
 17 23  2  0  0  0  0
 18 19  1  0  0  0  0
 18 20  2  0  0  0  0
 20 21  1  0  0  0  0
 21 22  2  0  0  0  0
 22 23  1  0  0  0  0
M  END
>  <InstanceId>
6RNT_2AM_A_105

>  <ChemCompId>
2AM

>  <PdbId>
6RNT

>  <ChainId>
A

>  <ResidueNumber>
105

>  <InsertionCode>


>  <Model>
1

>  <AltIds>


>  <MissingHeavyAtoms>
0

>  <ObservedFormula>
C10 N5 O7 P

>  <Name>
ADENOSINE-2'-MONOPHOSPHATE

>  <SystematicName>
[(2R,3R,4R,5R)-2-(6-aminopurin-9-yl)-4-hydroxy-5-(hydroxymethyl)oxolan-3-yl] dihydrogen phosphate

>  <Synonyms>


>  <Type>
NON-POLYMER

>  <Formula>
C10 H14 N5 O7 P

>  <MolecularWeight>
347.221

>  <ModifiedDate>
2011-06-04

>  <Parent>


>  <OneLetterCode>


>  <SubcomponentList>


>  <AmbiguousFlag>
N

>  <InChI>
InChI=1S/C10H14N5O7P/c11-8-5-9(13-2-12-8)15(3-14-5)10-7(22-23(18,19)20)6(17)4(1-16)21-10/h2-4,6-7,10,16-17H,1H2,(H2,11,12,13)(H2,18,19,20)/t4-,6-,7-,10-/m1/s1

>  <InChIKey>
QDFHPFSBQFLLSW-KQYNXXCUSA-N

>  <SMILES>
c1nc(c2c(n1)n(cn2)[C@H]3[C@@H]([C@@H]([C@H](O3)CO)O)OP(=O)(O)O)N

$$$$
