4D7B_TCW_A_1126
  RCSB PDB08012021273D
Coordinates from PDB:4D7B:A:1126 Model:1 without hydrogens
 20 21  0  0  0  0            999 V2000
    1.7990    2.1050   -7.2780   O 0  0  0  0  0  0  0  0  0  0  0  0
    0.8760    1.3270   -7.0120   C 0  0  0  0  0  0  0  0  0  0  0  0
    0.6550    0.8870   -5.5970   C 0  0  0  0  0  0  0  0  0  0  0  0
    1.2620    1.6000   -4.5610   C 0  0  0  0  0  0  0  0  0  0  0  0
    1.0340    1.2260   -3.2370   C 0  0  0  0  0  0  0  0  0  0  0  0
    1.6740    1.8700   -2.2110   O 0  0  0  0  0  0  0  0  0  0  0  0
   -0.2100   -0.1670   -5.2980   C 0  0  0  0  0  0  0  0  0  0  0  0
   -0.4120   -0.5680   -3.9660   C 0  0  0  0  0  0  0  0  0  0  0  0
   -1.3170   -1.7420   -3.7200   N 0  3  0  0  0  0  0  0  0  0  0  0
   -1.2210   -2.3830   -2.7270   O 0  5  0  0  0  0  0  0  0  0  0  0
   -2.0990   -2.0060   -4.5570   O 0  0  0  0  0  0  0  0  0  0  0  0
    0.2190    0.1290   -2.9190   C 0  0  0  0  0  0  0  0  0  0  0  0
    0.0150   -0.2410   -1.6420   O 0  0  0  0  0  0  0  0  0  0  0  0
    0.0070    0.8310   -8.1350   C 0  0  0  0  0  0  0  0  0  0  0  0
    0.5730    0.4310   -9.3460   C 0  0  0  0  0  0  0  0  0  0  0  0
   -0.1690   -0.0550  -10.4130   C 0  0  0  0  0  0  0  0  0  0  0  0
   -1.5440   -0.1080  -10.3400   C 0  0  0  0  0  0  0  0  0  0  0  0
   -2.3120   -0.5850  -11.4770   C 0  0  0  0  0  0  0  0  0  0  0  0
   -2.1150    0.3240   -9.1460   C 0  0  0  0  0  0  0  0  0  0  0  0
   -1.4010    0.7640   -8.0350   C 0  0  0  0  0  0  0  0  0  0  0  0
  1  2  2  0  0  0  0
  2  3  1  0  0  0  0
  2 14  1  0  0  0  0
  3  4  2  0  0  0  0
  3  7  1  0  0  0  0
  4  5  1  0  0  0  0
  5  6  1  0  0  0  0
  5 12  2  0  0  0  0
  7  8  2  0  0  0  0
  8  9  1  0  0  0  0
  8 12  1  0  0  0  0
  9 10  1  0  0  0  0
  9 11  2  0  0  0  0
 12 13  1  0  0  0  0
 14 15  2  0  0  0  0
 14 20  1  0  0  0  0
 15 16  1  0  0  0  0
 16 17  2  0  0  0  0
 17 18  1  0  0  0  0
 17 19  1  0  0  0  0
 19 20  2  0  0  0  0
M  CHG  2   9   1  10  -1
M  END
>  <InstanceId>
4D7B_TCW_A_1126

>  <ChemCompId>
TCW

>  <PdbId>
4D7B

>  <ChainId>
A

>  <ResidueNumber>
1126

>  <InsertionCode>


>  <Model>
1

>  <AltIds>


>  <MissingHeavyAtoms>
0

>  <ObservedFormula>
C14 N O5

>  <Name>
Tolcapone

>  <SystematicName>
(4-methylphenyl)-[3-nitro-4,5-bis(oxidanyl)phenyl]methanone

>  <Synonyms>
(3,4-dihydroxy-5-nitrophenyl)(4-methylphenyl)methanone

>  <Type>
NON-POLYMER

>  <Formula>
C14 H11 N O5

>  <MolecularWeight>
273.241

>  <ModifiedDate>
2012-01-27

>  <Parent>


>  <OneLetterCode>


>  <SubcomponentList>


>  <AmbiguousFlag>
N

>  <InChI>
InChI=1S/C14H11NO5/c1-8-2-4-9(5-3-8)13(17)10-6-11(15(19)20)14(18)12(16)7-10/h2-7,16,18H,1H3

>  <InChIKey>
MIQPIUSUKVNLNT-UHFFFAOYSA-N

>  <SMILES>
Cc1ccc(cc1)C(=O)c2cc(c(c(c2)O)O)[N+](=O)[O-]

$$$$
