1HVS_A77_A_800
  RCSB PDB08012015063D
Coordinates from PDB:1HVS:A:800 Model:1 without hydrogens
 58 61  0  0  0  0            999 V2000
    3.5100    3.4800   10.9120   C 0  0  0  0  0  0  0  0  0  0  0  0
    3.4010    4.2200   11.8740   O 0  0  0  0  0  0  0  0  0  0  0  0
    3.9770    3.9480    9.7340   N 0  0  0  0  0  0  0  0  0  0  0  0
    4.2570    3.0870    8.5790   C 0  0  0  0  0  0  0  0  0  0  0  0
    4.2450    5.3400    9.5550   C 0  0  0  0  0  0  0  0  0  0  0  0
    5.7260    5.5540    9.5920   C 0  0  0  0  0  0  0  0  0  0  0  0
    6.4710    5.6040    8.4260   C 0  0  0  0  0  0  0  0  0  0  0  0
    6.2330    5.7210   10.7900   N 0  0  0  0  0  0  0  0  0  0  0  0
    7.8180    5.8620    8.5190   C 0  0  0  0  0  0  0  0  0  0  0  0
    7.5300    5.9550   10.8530   C 0  0  0  0  0  0  0  0  0  0  0  0
    8.3670    6.0450    9.7650   C 0  0  0  0  0  0  0  0  0  0  0  0
    3.1750    2.1870   10.9770   N 0  0  0  0  0  0  0  0  0  0  0  0
    2.7630    1.4930   12.1580   C 0  0  0  0  0  0  0  0  0  0  0  0
    3.9020    0.5570   12.5420   C 0  0  0  0  0  0  0  0  0  0  0  0
    3.9500   -0.6130   12.1900   O 0  0  0  0  0  0  0  0  0  0  0  0
    1.4450    0.7500   11.9050   C 0  0  0  0  0  0  0  0  0  0  0  0
    0.9350   -0.0520   13.1280   C 0  0  0  0  0  0  0  0  0  0  0  0
    0.3580    1.6990   11.3980   C 0  0  0  0  0  0  0  0  0  0  0  0
    4.8410    1.1180   13.2860   N 0  0  0  0  0  0  0  0  0  0  0  0
    6.0420    0.4140   13.6900   C 0  0  0  0  0  0  0  0  0  0  0  0
    7.2750    1.2580   13.3490   C 0  0  0  0  0  0  0  0  0  0  0  0
    7.6120    1.2130   11.8990   C 0  0  0  0  0  0  0  0  0  0  0  0
    7.2320    2.2390   11.0570   C 0  0  0  0  0  0  0  0  0  0  0  0
    7.5100    2.1640    9.7190   C 0  0  0  0  0  0  0  0  0  0  0  0
    8.1600    1.0600    9.2310   C 0  0  0  0  0  0  0  0  0  0  0  0
    8.5580    0.0400   10.0740   C 0  0  0  0  0  0  0  0  0  0  0  0
    8.2890    0.1150   11.4130   C 0  0  0  0  0  0  0  0  0  0  0  0
    6.0140    0.2880   15.1650   C 0  0  0  0  0  0  0  0  0  0  0  0
    7.2100   -0.3640   15.5460   O 0  0  0  0  0  0  0  0  0  0  0  0
    5.1780   -0.2200   17.1760   O 0  0  0  0  0  0  0  0  0  0  0  0
    4.8230   -0.3660   15.8340   C 0  0  0  0  0  0  0  0  0  0  0  0
    5.7220   -2.6330   16.3070   N 0  0  0  0  0  0  0  0  0  0  0  0
    4.6460   -1.8620   15.6430   C 0  0  0  0  0  0  0  0  0  0  0  0
    3.2800   -2.2330   16.2470   C 0  0  0  0  0  0  0  0  0  0  0  0
    2.9310   -3.7210   16.1860   C 0  0  0  0  0  0  0  0  0  0  0  0
    2.9960   -4.5160   17.3310   C 0  0  0  0  0  0  0  0  0  0  0  0
    2.6860   -5.8610   17.2760   C 0  0  0  0  0  0  0  0  0  0  0  0
    2.3100   -6.4490   16.0970   C 0  0  0  0  0  0  0  0  0  0  0  0
    2.2310   -5.6780   14.9520   C 0  0  0  0  0  0  0  0  0  0  0  0
    2.5380   -4.3230   14.9950   C 0  0  0  0  0  0  0  0  0  0  0  0
    6.8350   -5.7600   16.7550   N 0  0  0  0  0  0  0  0  0  0  0  0
    7.3860   -4.4340   16.5220   C 0  0  0  0  0  0  0  0  0  0  0  0
    6.3750   -3.6460   15.7030   C 0  0  0  0  0  0  0  0  0  0  0  0
    6.1900   -3.9220   14.5280   O 0  0  0  0  0  0  0  0  0  0  0  0
    8.7230   -4.6000   15.8120   C 0  0  0  0  0  0  0  0  0  0  0  0
    9.3520   -3.2450   15.4470   C 0  0  0  0  0  0  0  0  0  0  0  0
    9.6830   -5.4520   16.6680   C 0  0  0  0  0  0  0  0  0  0  0  0
    6.6040   -6.2540   17.9820   C 0  0  0  0  0  0  0  0  0  0  0  0
    7.0510   -5.7360   18.9890   O 0  0  0  0  0  0  0  0  0  0  0  0
    5.8920   -7.3630   18.0710   N 0  0  0  0  0  0  0  0  0  0  0  0
    5.3520   -7.9890   16.8560   C 0  0  0  0  0  0  0  0  0  0  0  0
    5.6690   -7.9730   19.3750   C 0  0  0  0  0  0  0  0  0  0  0  0
    4.2440   -7.8210   19.8470   C 0  0  0  0  0  0  0  0  0  0  0  0
    3.3400   -8.8480   19.5810   C 0  0  0  0  0  0  0  0  0  0  0  0
    3.9180   -6.6890   20.4580   N 0  0  0  0  0  0  0  0  0  0  0  0
    2.0170   -8.7120   19.9230   C 0  0  0  0  0  0  0  0  0  0  0  0
    2.6310   -6.5680   20.7440   C 0  0  0  0  0  0  0  0  0  0  0  0
    1.6530   -7.5280   20.5140   C 0  0  0  0  0  0  0  0  0  0  0  0
  1  2  2  0  0  0  0
  1  3  1  0  0  0  0
  1 12  1  0  0  0  0
  3  4  1  0  0  0  0
  3  5  1  0  0  0  0
  5  6  1  0  0  0  0
  6  7  1  0  0  0  0
  6  8  2  0  0  0  0
  7  9  2  0  0  0  0
  8 10  1  0  0  0  0
  9 11  1  0  0  0  0
 10 11  2  0  0  0  0
 12 13  1  0  0  0  0
 13 14  1  0  0  0  0
 13 16  1  0  0  0  0
 14 15  2  0  0  0  0
 14 19  1  0  0  0  0
 16 17  1  0  0  0  0
 16 18  1  0  0  0  0
 19 20  1  0  0  0  0
 20 21  1  0  0  0  0
 20 28  1  0  0  0  0
 21 22  1  0  0  0  0
 22 23  2  0  0  0  0
 22 27  1  0  0  0  0
 23 24  1  0  0  0  0
 24 25  2  0  0  0  0
 25 26  1  0  0  0  0
 26 27  2  0  0  0  0
 28 29  1  0  0  0  0
 28 31  1  0  0  0  0
 30 31  1  0  0  0  0
 31 33  1  0  0  0  0
 32 33  1  0  0  0  0
 32 43  1  0  0  0  0
 33 34  1  0  0  0  0
 34 35  1  0  0  0  0
 35 36  2  0  0  0  0
 35 40  1  0  0  0  0
 36 37  1  0  0  0  0
 37 38  2  0  0  0  0
 38 39  1  0  0  0  0
 39 40  2  0  0  0  0
 41 42  1  0  0  0  0
 41 48  1  0  0  0  0
 42 43  1  0  0  0  0
 42 45  1  0  0  0  0
 43 44  2  0  0  0  0
 45 46  1  0  0  0  0
 45 47  1  0  0  0  0
 48 49  2  0  0  0  0
 48 50  1  0  0  0  0
 50 51  1  0  0  0  0
 50 52  1  0  0  0  0
 52 53  1  0  0  0  0
 53 54  1  0  0  0  0
 53 55  2  0  0  0  0
 54 56  2  0  0  0  0
 55 57  1  0  0  0  0
 56 58  1  0  0  0  0
 57 58  2  0  0  0  0
M  END
>  <InstanceId>
1HVS_A77_A_800

>  <ChemCompId>
A77

>  <PdbId>
1HVS

>  <ChainId>
A

>  <ResidueNumber>
800

>  <InsertionCode>


>  <Model>
1

>  <AltIds>


>  <MissingHeavyAtoms>
0

>  <ObservedFormula>
C44 N8 O6

>  <Name>
N-{1-BENZYL-(2R,3S)-2,3-DIHYDROXY-4-[3-METHYL-2-(3-METHYL-3-PYRIDIN-2-YLMETHYL-UREIDO)-BUTYRYLAMINO]-5-PHENYL-PENTYL}-3-METHYL-2-(3-METHYL-3-PYRIDIN-2-YLMETHYL-UREIDO)-BUTYRAMIDE

>  <SystematicName>
(2S)-N-[(2S,3S,4R,5S)-3,4-dihydroxy-5-[[(2S)-3-methyl-2-[(methyl-(pyridin-2-ylmethyl)carbamoyl)amino]butanoyl]amino]-1,6-diphenyl-hexan-2-yl]-3-methyl-2-[(methyl-(pyridin-2-ylmethyl)carbamoyl)amino]butanamide

>  <Synonyms>


>  <Type>
NON-POLYMER

>  <Formula>
C44 H58 N8 O6

>  <MolecularWeight>
794.981

>  <ModifiedDate>
2011-06-04

>  <Parent>


>  <OneLetterCode>


>  <SubcomponentList>


>  <AmbiguousFlag>
N

>  <InChI>
InChI=1S/C44H58N8O6/c1-29(2)37(49-43(57)51(5)27-33-21-13-15-23-45-33)41(55)47-35(25-31-17-9-7-10-18-31)39(53)40(54)36(26-32-19-11-8-12-20-32)48-42(56)38(30(3)4)50-44(58)52(6)28-34-22-14-16-24-46-34/h7-24,29-30,35-40,53-54H,25-28H2,1-6H3,(H,47,55)(H,48,56)(H,49,57)(H,50,58)/t35-,36-,37-,38-,39-,40+/m0/s1

>  <InChIKey>
QPVWMQXBTCSLCB-BYAJYZPISA-N

>  <SMILES>
CC(C)[C@@H](C(=O)N[C@@H](Cc1ccccc1)[C@@H]([C@@H]([C@H](Cc2ccccc2)NC(=O)[C@H](C(C)C)NC(=O)N(C)Cc3ccccn3)O)O)NC(=O)N(C)Cc4ccccn4

$$$$
