3LZU_017_A_200
  RCSB PDB08012019453D
Coordinates from PDB:3LZU:A:200 Model:1 without hydrogens
 38 41  0  0  0  0            999 V2000
    8.9630  -16.2910   -7.9310   N 0  0  0  0  0  0  0  0  0  0  0  0
    8.8030  -16.0010   -6.6240   C 0  0  0  0  0  0  0  0  0  0  0  0
    7.5340  -15.8130   -6.0870   C 0  0  0  0  0  0  0  0  0  0  0  0
    7.3980  -15.5000   -4.7360   C 0  0  0  0  0  0  0  0  0  0  0  0
    8.5400  -15.3880   -3.9490   C 0  0  0  0  0  0  0  0  0  0  0  0
    9.7980  -15.5710   -4.5040   C 0  0  0  0  0  0  0  0  0  0  0  0
    9.9370  -15.8820   -5.8440   C 0  0  0  0  0  0  0  0  0  0  0  0
    8.4700  -15.0480   -2.3950   S 0  0  0  0  0  0  0  0  0  0  0  0
    9.6710  -14.3460   -2.0590   O 0  0  0  0  0  0  0  0  0  0  0  0
    7.3100  -14.2510   -2.1400   O 0  0  0  0  0  0  0  0  0  0  0  0
    8.3160  -16.3440   -1.4310   N 0  0  0  0  0  0  0  0  0  0  0  0
    7.1740  -17.1870   -1.8270   C 0  0  0  0  0  0  0  0  0  0  0  0
    6.6310  -17.9590   -0.6290   C 0  0  0  0  0  0  0  0  0  0  0  0
    6.2750  -17.0200    0.5160   C 0  0  0  0  0  0  0  0  0  0  0  0
    5.4090  -18.7900   -1.0160   C 0  0  0  0  0  0  0  0  0  0  0  0
    9.5510  -17.1450   -1.3220   C 0  0  0  0  0  0  0  0  0  0  0  0
    9.9820  -17.1410    0.1440   C 0  0  0  0  0  0  0  0  0  0  0  0
   11.0550  -18.0650    0.3350   O 0  0  0  0  0  0  0  0  0  0  0  0
   10.4380  -15.7720    0.6320   C 0  0  0  0  0  0  0  0  0  0  0  0
   10.5840  -15.8550    2.0680   N 0  0  0  0  0  0  0  0  0  0  0  0
    9.7690  -15.2500    2.9200   C 0  0  0  0  0  0  0  0  0  0  0  0
    8.7960  -14.5570    2.6300   O 0  0  0  0  0  0  0  0  0  0  0  0
   10.1670  -15.5040    4.2900   O 0  0  0  0  0  0  0  0  0  0  0  0
    9.5010  -14.7070    5.2530   C 0  0  0  0  0  0  0  0  0  0  0  0
    9.1030  -15.6180    6.3950   C 0  0  0  0  0  0  0  0  0  0  0  0
   10.3110  -15.7140    7.1450   O 0  0  0  0  0  0  0  0  0  0  0  0
   11.0480  -14.4960    7.0400   C 0  0  0  0  0  0  0  0  0  0  0  0
   12.4220  -14.8100    6.8090   O 0  0  0  0  0  0  0  0  0  0  0  0
   12.7650  -14.5840    5.4510   C 0  0  0  0  0  0  0  0  0  0  0  0
   11.7670  -13.5410    4.9610   C 0  0  0  0  0  0  0  0  0  0  0  0
   10.5340  -13.7550    5.8250   C 0  0  0  0  0  0  0  0  0  0  0  0
   11.7870  -15.3360    0.0700   C 0  0  0  0  0  0  0  0  0  0  0  0
   13.2830  -14.0060    1.5940   C 0  0  0  0  0  0  0  0  0  0  0  0
   13.6800  -12.8060    2.1660   C 0  0  0  0  0  0  0  0  0  0  0  0
   13.0200  -11.6290    1.8390   C 0  0  0  0  0  0  0  0  0  0  0  0
   11.9620  -11.6590    0.9410   C 0  0  0  0  0  0  0  0  0  0  0  0
   11.5650  -12.8590    0.3660   C 0  0  0  0  0  0  0  0  0  0  0  0
   12.2210  -14.0340    0.6920   C 0  0  0  0  0  0  0  0  0  0  0  0
  1  2  1  0  0  0  0
  2  3  2  0  0  0  0
  2  7  1  0  0  0  0
  3  4  1  0  0  0  0
  4  5  2  0  0  0  0
  5  6  1  0  0  0  0
  5  8  1  0  0  0  0
  6  7  2  0  0  0  0
  8  9  2  0  0  0  0
  8 10  2  0  0  0  0
  8 11  1  0  0  0  0
 11 12  1  0  0  0  0
 11 16  1  0  0  0  0
 12 13  1  0  0  0  0
 13 14  1  0  0  0  0
 13 15  1  0  0  0  0
 16 17  1  0  0  0  0
 17 18  1  0  0  0  0
 17 19  1  0  0  0  0
 19 20  1  0  0  0  0
 19 32  1  0  0  0  0
 20 21  1  0  0  0  0
 21 22  2  0  0  0  0
 21 23  1  0  0  0  0
 23 24  1  0  0  0  0
 24 25  1  0  0  0  0
 24 31  1  0  0  0  0
 25 26  1  0  0  0  0
 26 27  1  0  0  0  0
 27 28  1  0  0  0  0
 27 31  1  0  0  0  0
 28 29  1  0  0  0  0
 29 30  1  0  0  0  0
 30 31  1  0  0  0  0
 32 38  1  0  0  0  0
 33 34  2  0  0  0  0
 33 38  1  0  0  0  0
 34 35  1  0  0  0  0
 35 36  2  0  0  0  0
 36 37  1  0  0  0  0
 37 38  2  0  0  0  0
M  END
>  <InstanceId>
3LZU_017_A_200

>  <ChemCompId>
017

>  <PdbId>
3LZU

>  <ChainId>
A

>  <ResidueNumber>
200

>  <InsertionCode>


>  <Model>
1

>  <AltIds>


>  <MissingHeavyAtoms>
0

>  <ObservedFormula>
C27 N3 O7 S

>  <Name>
(3R,3AS,6AR)-HEXAHYDROFURO[2,3-B]FURAN-3-YL(1S,2R)-3-[[(4-AMINOPHENYL)SULFONYL](ISOBUTYL)AMINO]-1-BENZYL-2-HYDROXYPROPYLCARBAMATE

>  <SystematicName>
[(3R,3aS,6aR)-2,3,3a,4,5,6a-hexahydrofuro[2,3-b]furan-3-yl] N-[(2S,3R)-4-[(4-aminophenyl)sulfonyl-(2-methylpropyl)amino]-3-hydroxy-1-phenyl-butan-2-yl]carbamate

>  <Synonyms>
Darunavir; TMC114; UIC-94017

>  <Type>
NON-POLYMER

>  <Formula>
C27 H37 N3 O7 S

>  <MolecularWeight>
547.664

>  <ModifiedDate>
2020-05-22

>  <Parent>


>  <OneLetterCode>


>  <SubcomponentList>


>  <AmbiguousFlag>
N

>  <InChI>
InChI=1S/C27H37N3O7S/c1-18(2)15-30(38(33,34)21-10-8-20(28)9-11-21)16-24(31)23(14-19-6-4-3-5-7-19)29-27(32)37-25-17-36-26-22(25)12-13-35-26/h3-11,18,22-26,31H,12-17,28H2,1-2H3,(H,29,32)/t22-,23-,24+,25-,26+/m0/s1

>  <InChIKey>
CJBJHOAVZSMMDJ-HEXNFIEUSA-N

>  <SMILES>
CC(C)C[N@@](C[C@H]([C@H](Cc1ccccc1)NC(=O)O[C@H]2CO[C@@H]3[C@H]2CCO3)O)S(=O)(=O)c4ccc(cc4)N

$$$$
