6CZB_UTP_A_302
  RCSB PDB08022004183D
Coordinates from PDB:6CZB:A:302 Model:1 without hydrogens
 29 30  0  0  0  0            999 V2000
   -8.3040  -35.8140   22.1330   P 0  0  0  0  0  0  0  0  0  0  0  0
   -9.5630  -35.6160   21.2870   O 0  0  0  0  0  0  0  0  0  0  0  0
   -7.2970  -36.6280   21.3460   O 0  0  0  0  0  0  0  0  0  0  0  0
   -7.7260  -34.2940   22.4760   O 0  0  0  0  0  0  0  0  0  0  0  0
   -8.4360  -36.5510   23.6560   O 0  0  0  0  0  0  0  0  0  0  0  0
   -6.6070  -33.5660   21.5420   P 0  0  0  0  0  0  0  0  0  0  0  0
   -6.5310  -32.1070   21.9330   O 0  0  0  0  0  0  0  0  0  0  0  0
   -7.0700  -33.7350   20.1100   O 0  0  0  0  0  0  0  0  0  0  0  0
   -5.1690  -34.3390   21.8330   O 0  0  0  0  0  0  0  0  0  0  0  0
   -3.7080  -34.1030   21.0870   P 0  0  0  0  0  0  0  0  0  0  0  0
   -2.9430  -35.3700   21.4170   O 0  0  0  0  0  0  0  0  0  0  0  0
   -3.6920  -33.8880   19.6010   O 0  0  0  0  0  0  0  0  0  0  0  0
   -3.1300  -32.8210   21.6450   O 0  0  0  0  0  0  0  0  0  0  0  0
   -9.5360  -37.3170   24.0940   C 0  0  0  0  0  0  0  0  0  0  0  0
   -9.1430  -38.6590   24.2830   C 0  0  0  0  0  0  0  0  0  0  0  0
   -7.9020  -38.8850   25.1520   O 0  0  0  0  0  0  0  0  0  0  0  0
   -8.1200  -40.1250   25.6240   C 0  0  0  0  0  0  0  0  0  0  0  0
   -9.6740  -40.0370   26.0470   C 0  0  0  0  0  0  0  0  0  0  0  0
  -10.2870  -41.3450   26.2680   O 0  0  0  0  0  0  0  0  0  0  0  0
  -10.2700  -39.4160   25.0480   C 0  0  0  0  0  0  0  0  0  0  0  0
  -10.9170  -40.3810   24.1140   O 0  0  0  0  0  0  0  0  0  0  0  0
   -7.2530  -40.5420   26.7020   N 0  0  0  0  0  0  0  0  0  0  0  0
   -7.7680  -41.1930   27.7410   C 0  0  0  0  0  0  0  0  0  0  0  0
   -5.9140  -40.3160   26.6800   C 0  0  0  0  0  0  0  0  0  0  0  0
   -5.4030  -39.7470   25.7670   O 0  0  0  0  0  0  0  0  0  0  0  0
   -5.1250  -40.7470   27.7140   N 0  0  0  0  0  0  0  0  0  0  0  0
   -5.6530  -41.3760   28.7460   C 0  0  0  0  0  0  0  0  0  0  0  0
   -4.9690  -41.7480   29.6500   O 0  0  0  0  0  0  0  0  0  0  0  0
   -6.9930  -41.6130   28.7660   C 0  0  0  0  0  0  0  0  0  0  0  0
  1  2  2  0  0  0  0
  1  3  1  0  0  0  0
  1  4  1  0  0  0  0
  1  5  1  0  0  0  0
  4  6  1  0  0  0  0
  5 14  1  0  0  0  0
  6  7  1  0  0  0  0
  6  8  2  0  0  0  0
  6  9  1  0  0  0  0
  9 10  1  0  0  0  0
 10 11  1  0  0  0  0
 10 12  2  0  0  0  0
 10 13  1  0  0  0  0
 14 15  1  0  0  0  0
 15 16  1  0  0  0  0
 15 20  1  0  0  0  0
 16 17  1  0  0  0  0
 17 18  1  0  0  0  0
 17 22  1  0  0  0  0
 18 19  1  0  0  0  0
 18 20  1  0  0  0  0
 20 21  1  0  0  0  0
 22 23  1  0  0  0  0
 22 24  1  0  0  0  0
 23 29  2  0  0  0  0
 24 25  2  0  0  0  0
 24 26  1  0  0  0  0
 26 27  1  0  0  0  0
 27 28  2  0  0  0  0
 27 29  1  0  0  0  0
M  END
>  <InstanceId>
6CZB_UTP_A_302

>  <ChemCompId>
UTP

>  <PdbId>
6CZB

>  <ChainId>
A

>  <ResidueNumber>
302

>  <InsertionCode>


>  <Model>
1

>  <AltIds>


>  <MissingHeavyAtoms>
0

>  <ObservedFormula>
C9 N2 O15 P3

>  <Name>
URIDINE 5'-TRIPHOSPHATE

>  <SystematicName>
[(2R,3S,4R,5R)-5-(2,4-dioxopyrimidin-1-yl)-3,4-dihydroxy-oxolan-2-yl]methyl (hydroxy-phosphonooxy-phosphoryl) hydrogen phosphate

>  <Synonyms>


>  <Type>
NON-POLYMER

>  <Formula>
C9 H15 N2 O15 P3

>  <MolecularWeight>
484.141

>  <ModifiedDate>
2011-06-04

>  <Parent>


>  <OneLetterCode>


>  <SubcomponentList>


>  <AmbiguousFlag>
N

>  <InChI>
InChI=1S/C9H15N2O15P3/c12-5-1-2-11(9(15)10-5)8-7(14)6(13)4(24-8)3-23-28(19,20)26-29(21,22)25-27(16,17)18/h1-2,4,6-8,13-14H,3H2,(H,19,20)(H,21,22)(H,10,12,15)(H2,16,17,18)/t4-,6-,7-,8-/m1/s1

>  <InChIKey>
PGAVKCOVUIYSFO-XVFCMESISA-N

>  <SMILES>
C1=CN(C(=O)NC1=O)[C@H]2[C@@H]([C@@H]([C@H](O2)CO[P@@](=O)(O)O[P@@](=O)(O)OP(=O)(O)O)O)O

$$$$
