3AGL_A03_A_351
  RCSB PDB08012018323D
Coordinates from PDB:3AGL:A:351 Model:1 without hydrogens
 63 65  0  0  0  0            999 V2000
  -18.4220    5.2210   -0.1900   N 0  0  0  0  0  0  0  0  0  0  0  0
  -19.5910    5.2260    0.4450   C 0  0  0  0  0  0  0  0  0  0  0  0
  -19.6940    5.5280    1.7340   N 0  0  0  0  0  0  0  0  0  0  0  0
  -18.5890    5.8530    2.4360   C 0  0  0  0  0  0  0  0  0  0  0  0
  -17.3510    5.8490    1.8040   C 0  0  0  0  0  0  0  0  0  0  0  0
  -17.2790    5.5120    0.4510   C 0  0  0  0  0  0  0  0  0  0  0  0
  -16.1020    5.4980   -0.1930   N 0  0  0  0  0  0  0  0  0  0  0  0
  -16.4400    6.1770    2.7130   N 0  0  0  0  0  0  0  0  0  0  0  0
  -17.0650    6.3890    3.8660   C 0  0  0  0  0  0  0  0  0  0  0  0
  -18.3750    6.1940    3.7040   N 0  0  0  0  0  0  0  0  0  0  0  0
  -16.5820    7.5410    6.9640   O 0  0  0  0  0  0  0  0  0  0  0  0
  -19.0490    4.6600    7.9310   O 0  0  0  0  0  0  0  0  0  0  0  0
  -20.9760    5.0680    5.9800   O 0  0  0  0  0  0  0  0  0  0  0  0
  -19.1020    7.4150    5.6860   O 0  0  0  0  0  0  0  0  0  0  0  0
  -17.6330    7.5010    7.6130   C 0  0  0  0  0  0  0  0  0  0  0  0
  -18.6520    5.3600    6.7770   C 0  0  0  0  0  0  0  0  0  0  0  0
  -19.6050    5.0900    5.5950   C 0  0  0  0  0  0  0  0  0  0  0  0
  -18.8720    6.8420    7.0060   C 0  0  0  0  0  0  0  0  0  0  0  0
  -19.4260    6.3390    4.7530   C 0  0  0  0  0  0  0  0  0  0  0  0
  -14.0520   12.7150   11.5640   C 0  0  0  0  0  0  0  0  0  0  0  0
  -14.7380   13.5310   12.1730   O 0  0  0  0  0  0  0  0  0  0  0  0
  -13.9360   12.7930   10.0380   C 0  0  0  0  0  0  0  0  0  0  0  0
  -15.1950   12.2730    9.3360   C 0  0  0  0  0  0  0  0  0  0  0  0
  -15.3670   10.7830    9.6380   C 0  0  0  0  0  0  0  0  0  0  0  0
  -16.7020   10.2080    9.1740   C 0  0  0  0  0  0  0  0  0  0  0  0
  -16.6920    8.7180    9.5380   C 0  0  0  0  0  0  0  0  0  0  0  0
  -17.7790    8.0170    8.8360   N 0  0  0  0  0  0  0  0  0  0  0  0
  -13.3680   11.7160   12.1430   N 0  0  0  0  0  0  0  0  0  0  0  0
  -13.3630   11.5250   13.5870   C 0  0  0  0  0  0  0  0  0  0  0  0
  -12.2620   10.5300   14.0170   C 0  0  0  0  0  0  0  0  0  0  0  0
  -14.7430   11.0530   14.0800   C 0  0  0  0  0  0  0  0  0  0  0  0
  -15.3050   11.6350   15.0070   O 0  0  0  0  0  0  0  0  0  0  0  0
  -19.7760    6.4650   17.3600   C 0  0  0  0  0  0  0  0  0  0  0  0
  -19.4620    5.2980   17.7220   O 0  0  0  0  0  0  0  0  0  0  0  0
  -18.8130    7.6420   17.5990   C 0  0  0  0  0  0  0  0  0  0  0  0
  -18.3510    8.2120   16.2720   C 0  0  0  0  0  0  0  0  0  0  0  0
  -16.8650    8.5730   16.2650   C 0  0  0  0  0  0  0  0  0  0  0  0
  -16.2550    8.2790   14.8910   C 0  0  0  0  0  0  0  0  0  0  0  0
  -16.5180    9.3810   13.8750   C 0  0  0  0  0  0  0  0  0  0  0  0
  -15.2310    9.9700   13.4820   N 0  0  0  0  0  0  0  0  0  0  0  0
  -20.9280    6.8090   16.7380   N 0  0  0  0  0  0  0  0  0  0  0  0
  -22.0070    5.8370   16.4130   C 0  0  0  0  0  0  0  0  0  0  0  0
  -23.2580    6.6220   16.0060   C 0  0  0  0  0  0  0  0  0  0  0  0
  -23.1280    7.1460   14.5720   C 0  0  0  0  0  0  0  0  0  0  0  0
  -23.4690    6.0140   13.5950   C 0  0  0  0  0  0  0  0  0  0  0  0
  -22.5020    6.0120   12.4970   N 0  0  0  0  0  0  0  0  0  0  0  0
  -22.3880    5.0030   11.6280   C 0  0  0  0  0  0  0  0  0  0  0  0
  -21.4910    5.1310   10.6380   N 0  0  0  0  0  0  0  0  0  0  0  0
  -23.1650    3.9260   11.7290   N 0  0  0  0  0  0  0  0  0  0  0  0
  -22.3410    4.9300   17.6000   C 0  0  0  0  0  0  0  0  0  0  0  0
  -22.3320    5.3900   18.7350   O 0  0  0  0  0  0  0  0  0  0  0  0
  -22.6230    3.6530   17.3070   N 0  0  0  0  0  0  0  0  0  0  0  0
  -22.9330    2.6370   18.3280   C 0  0  0  0  0  0  0  0  0  0  0  0
  -22.0170    1.4180   18.1680   C 0  0  0  0  0  0  0  0  0  0  0  0
  -20.5220    1.7670   18.0620   C 0  0  0  0  0  0  0  0  0  0  0  0
  -19.7280    0.4670   18.3100   C 0  0  0  0  0  0  0  0  0  0  0  0
  -19.6070   -0.2720   17.0280   N 0  0  0  0  0  0  0  0  0  0  0  0
  -19.8750   -1.5790   16.9750   C 0  0  0  0  0  0  0  0  0  0  0  0
  -20.2810   -2.2420   18.0560   N 0  0  0  0  0  0  0  0  0  0  0  0
  -19.7320   -2.2320   15.8290   N 0  0  0  0  0  0  0  0  0  0  0  0
  -24.3870    2.1400   18.2230   C 0  0  0  0  0  0  0  0  0  0  0  0
  -25.0690    2.3520   17.2220   O 0  0  0  0  0  0  0  0  0  0  0  0
  -24.8180    1.4570   19.2660   N 0  0  0  0  0  0  0  0  0  0  0  0
  1  2  2  0  0  0  0
  1  6  1  0  0  0  0
  2  3  1  0  0  0  0
  3  4  2  0  0  0  0
  4  5  1  0  0  0  0
  4 10  1  0  0  0  0
  5  6  2  0  0  0  0
  5  8  1  0  0  0  0
  6  7  1  0  0  0  0
  8  9  2  0  0  0  0
  9 10  1  0  0  0  0
 10 19  1  0  0  0  0
 11 15  2  0  0  0  0
 12 16  1  0  0  0  0
 13 17  1  0  0  0  0
 14 18  1  0  0  0  0
 14 19  1  0  0  0  0
 15 18  1  0  0  0  0
 16 17  1  0  0  0  0
 16 18  1  0  0  0  0
 17 19  1  0  0  0  0
 20 21  2  0  0  0  0
 20 22  1  0  0  0  0
 22 23  1  0  0  0  0
 23 24  1  0  0  0  0
 24 25  1  0  0  0  0
 25 26  1  0  0  0  0
 26 27  1  0  0  0  0
 28 29  1  0  0  0  0
 29 30  1  0  0  0  0
 29 31  1  0  0  0  0
 31 32  2  0  0  0  0
 33 34  2  0  0  0  0
 33 35  1  0  0  0  0
 35 36  1  0  0  0  0
 36 37  1  0  0  0  0
 37 38  1  0  0  0  0
 38 39  1  0  0  0  0
 39 40  1  0  0  0  0
 41 42  1  0  0  0  0
 42 43  1  0  0  0  0
 42 50  1  0  0  0  0
 43 44  1  0  0  0  0
 44 45  1  0  0  0  0
 45 46  1  0  0  0  0
 46 47  1  0  0  0  0
 47 48  1  0  0  0  0
 47 49  2  0  0  0  0
 50 51  2  0  0  0  0
 52 53  1  0  0  0  0
 53 54  1  0  0  0  0
 53 61  1  0  0  0  0
 54 55  1  0  0  0  0
 55 56  1  0  0  0  0
 56 57  1  0  0  0  0
 57 58  1  0  0  0  0
 58 59  1  0  0  0  0
 58 60  2  0  0  0  0
 61 62  2  0  0  0  0
 15 27  1  0  0  0  0
 20 28  1  0  0  0  0
 31 40  1  0  0  0  0
 33 41  1  0  0  0  0
 50 52  1  0  0  0  0
 61 63  1  0  0  0  0
M  END
>  <InstanceId>
3AGL_A03_A_351

>  <ChemCompId>
A03

>  <PdbId>
3AGL

>  <ChainId>
A

>  <ResidueNumber>
351

>  <InsertionCode>


>  <Model>
1

>  <AltIds>


>  <MissingHeavyAtoms>
0

>  <ObservedFormula>
C37 N17 O9

>  <Name>
(10R,20R,23R)-1-[(2S,3S,4R,5R)-5-(6-amino-9H-purin-9-yl)-3,4-dihydroxytetrahydrofuran-2-yl]-20,23-bis(3-carbamimidamido propyl)-10-methyl-1,8,11,18,21-pentaoxo-2,9,12,19,22-pentaazatetracosan-24-amide

>  <SystematicName>
(2S,3S,4R,5R)-5-(6-aminopurin-9-yl)-N-[6-[[(2R)-1-[[6-[[(2R)-1-[[(2R)-1-azanyl-5-carbamimidamido-1-oxo-pentan-2-yl]amino]-5-carbamimidamido-1-oxo-pentan-2-yl]amino]-6-oxo-hexyl]amino]-1-oxo-propan-2-yl]amino]-6-oxo-hexyl]-3,4-dihydroxy-oxolane-2-carboxamide

>  <Synonyms>
ARC-1039

>  <Type>
peptide-like

>  <Formula>
C37 H63 N17 O9

>  <MolecularWeight>
890.005

>  <ModifiedDate>
2020-06-17

>  <Parent>


>  <OneLetterCode>


>  <SubcomponentList>
44A ACA DAL ACA DAR DAR NH2

>  <AmbiguousFlag>
N

>  <InChI>
InChI=1S/C37H63N17O9/c1-20(51-23(55)12-4-2-7-15-45-34(62)28-26(57)27(58)35(63-28)54-19-50-25-29(38)48-18-49-31(25)54)32(60)44-14-6-3-5-13-24(56)52-22(11-9-17-47-37(42)43)33(61)53-21(30(39)59)10-8-16-46-36(40)41/h18-22,26-28,35,57-58H,2-17H2,1H3,(H2,39,59)(H,44,60)(H,45,62)(H,51,55)(H,52,56)(H,53,61)(H2,38,48,49)(H4,40,41,46)(H4,42,43,47)/t20-,21-,22-,26+,27-,28+,35-/m1/s1

>  <InChIKey>
SOPDRJHPMMUFQM-ZUGNLIAKSA-N

>  <SMILES>
[H]/N=C(\N)/NCCC[C@H](C(=O)N)NC(=O)[C@@H](CCCN/C(=N/[H])/N)NC(=O)CCCCCNC(=O)[C@@H](C)NC(=O)CCCCCNC(=O)[C@@H]1[C@H]([C@H]([C@@H](O1)n2cnc3c2ncnc3N)O)O

$$$$
