5WP5_SAH_A_501
  RCSB PDB08022003323D
Coordinates from PDB:5WP5:A:501 Model:1 without hydrogens
 26 28  0  0  0  0            999 V2000
    5.9470    9.3490  -49.6120   N 0  0  0  0  0  0  0  0  0  0  0  0
    5.3870    8.9960  -48.2930   C 0  0  0  0  0  0  0  0  0  0  0  0
    3.9060    8.4700  -48.4480   C 0  0  0  0  0  0  0  0  0  0  0  0
    3.7620    7.1040  -49.1220   C 0  0  0  0  0  0  0  0  0  0  0  0
    2.0780    6.4160  -49.2850   S 0  0  0  0  0  0  0  0  0  0  0  0
    6.2980    8.0440  -47.6410   C 0  0  0  0  0  0  0  0  0  0  0  0
    7.0470    7.3810  -48.3360   O 0  0  0  0  0  0  0  0  0  0  0  0
    6.1650    7.7890  -46.4600   O 0  0  0  0  0  0  0  0  0  0  0  0
    1.3080    7.2580  -50.6940   C 0  0  0  0  0  0  0  0  0  0  0  0
    0.7000    8.5310  -50.4620   C 0  0  0  0  0  0  0  0  0  0  0  0
    0.2290    9.0680  -51.7240   O 0  0  0  0  0  0  0  0  0  0  0  0
   -0.5030    8.3900  -49.6150   C 0  0  0  0  0  0  0  0  0  0  0  0
   -0.2910    9.1430  -48.4380   O 0  0  0  0  0  0  0  0  0  0  0  0
   -1.6190    8.9200  -50.4080   C 0  0  0  0  0  0  0  0  0  0  0  0
   -2.5350    9.6590  -49.6270   O 0  0  0  0  0  0  0  0  0  0  0  0
   -0.9480    9.7480  -51.4500   C 0  0  0  0  0  0  0  0  0  0  0  0
   -1.7630    9.9880  -52.6960   N 0  0  0  0  0  0  0  0  0  0  0  0
   -2.4950    9.1310  -53.4260   C 0  0  0  0  0  0  0  0  0  0  0  0
   -2.9800    9.8230  -54.4620   N 0  0  0  0  0  0  0  0  0  0  0  0
   -2.5540   11.0940  -54.3970   C 0  0  0  0  0  0  0  0  0  0  0  0
   -2.7450   12.2370  -55.1940   C 0  0  0  0  0  0  0  0  0  0  0  0
   -3.5550   12.2010  -56.3050   N 0  0  0  0  0  0  0  0  0  0  0  0
   -2.1500   13.3870  -54.8220   N 0  0  0  0  0  0  0  0  0  0  0  0
   -1.3870   13.4600  -53.7250   C 0  0  0  0  0  0  0  0  0  0  0  0
   -1.1880   12.3770  -52.9400   N 0  0  0  0  0  0  0  0  0  0  0  0
   -1.7570   11.2000  -53.2570   C 0  0  0  0  0  0  0  0  0  0  0  0
  1  2  1  0  0  0  0
  2  3  1  0  0  0  0
  2  6  1  0  0  0  0
  3  4  1  0  0  0  0
  4  5  1  0  0  0  0
  5  9  1  0  0  0  0
  6  7  2  0  0  0  0
  6  8  1  0  0  0  0
  9 10  1  0  0  0  0
 10 11  1  0  0  0  0
 10 12  1  0  0  0  0
 11 16  1  0  0  0  0
 12 13  1  0  0  0  0
 12 14  1  0  0  0  0
 14 15  1  0  0  0  0
 14 16  1  0  0  0  0
 16 17  1  0  0  0  0
 17 18  1  0  0  0  0
 17 26  1  0  0  0  0
 18 19  2  0  0  0  0
 19 20  1  0  0  0  0
 20 21  1  0  0  0  0
 20 26  2  0  0  0  0
 21 22  1  0  0  0  0
 21 23  2  0  0  0  0
 23 24  1  0  0  0  0
 24 25  2  0  0  0  0
 25 26  1  0  0  0  0
M  END
>  <InstanceId>
5WP5_SAH_A_501

>  <ChemCompId>
SAH

>  <PdbId>
5WP5

>  <ChainId>
A

>  <ResidueNumber>
501

>  <InsertionCode>


>  <Model>
1

>  <AltIds>


>  <MissingHeavyAtoms>
0

>  <ObservedFormula>
C14 N6 O5 S

>  <Name>
S-ADENOSYL-L-HOMOCYSTEINE

>  <SystematicName>
(2S)-2-amino-4-[[(2S,3S,4R,5R)-5-(6-aminopurin-9-yl)-3,4-dihydroxy-oxolan-2-yl]methylsulfanyl]butanoic acid

>  <Synonyms>


>  <Type>
L-PEPTIDE LINKING

>  <Formula>
C14 H20 N6 O5 S

>  <MolecularWeight>
384.411

>  <ModifiedDate>
2011-06-04

>  <Parent>
CYS

>  <OneLetterCode>
C

>  <SubcomponentList>


>  <AmbiguousFlag>
N

>  <InChI>
InChI=1S/C14H20N6O5S/c15-6(14(23)24)1-2-26-3-7-9(21)10(22)13(25-7)20-5-19-8-11(16)17-4-18-12(8)20/h4-7,9-10,13,21-22H,1-3,15H2,(H,23,24)(H2,16,17,18)/t6-,7+,9+,10+,13+/m0/s1

>  <InChIKey>
ZJUKTBDSGOFHSH-WFMPWKQPSA-N

>  <SMILES>
c1nc(c2c(n1)n(cn2)[C@H]3[C@@H]([C@@H]([C@H](O3)CSCC[C@@H](C(=O)O)N)O)O)N

$$$$
