1X1Z_BMP_A_301
  RCSB PDB08012016203D
Coordinates from PDB:1X1Z:A:301 Model:1 without hydrogens
 22 23  0  0  0  0            999 V2000
   24.5890  -15.9930    8.7310   P 0  0  0  0  0  0  0  0  0  0  0  0
   25.8850  -15.2300    8.8790   O 0  0  0  0  0  0  0  0  0  0  0  0
   23.4250  -15.0490    8.5920   O 0  0  0  0  0  0  0  0  0  0  0  0
   24.6850  -16.9770    7.5900   O 0  0  0  0  0  0  0  0  0  0  0  0
   24.2760  -16.8040   10.0820   O 0  0  0  0  0  0  0  0  0  0  0  0
   25.3360  -17.3930   10.8650   C 0  0  0  0  0  0  0  0  0  0  0  0
   24.5700  -18.0980   11.9540   C 0  0  0  0  0  0  0  0  0  0  0  0
   25.4970  -18.9710   12.6590   O 0  0  0  0  0  0  0  0  0  0  0  0
   24.0090  -17.2220   13.0130   C 0  0  0  0  0  0  0  0  0  0  0  0
   22.8550  -17.8020   13.6440   O 0  0  0  0  0  0  0  0  0  0  0  0
   25.1330  -17.1190   14.0520   C 0  0  0  0  0  0  0  0  0  0  0  0
   24.6400  -16.7680   15.3100   O 0  0  0  0  0  0  0  0  0  0  0  0
   25.7490  -18.4970   13.9880   C 0  0  0  0  0  0  0  0  0  0  0  0
   27.2100  -18.6080   14.2190   N 0  0  0  0  0  0  0  0  0  0  0  0
   28.1140  -17.8160   13.5290   C 0  0  0  0  0  0  0  0  0  0  0  0
   27.7620  -17.0320   12.6790   O 0  0  0  0  0  0  0  0  0  0  0  0
   29.4100  -17.9790   13.8380   N 0  0  0  0  0  0  0  0  0  0  0  0
   29.9410  -18.8820   14.7960   C 0  0  0  0  0  0  0  0  0  0  0  0
   31.1580  -18.8920   14.9280   O 0  0  0  0  0  0  0  0  0  0  0  0
   28.9890  -19.6960   15.4790   C 0  0  0  0  0  0  0  0  0  0  0  0
   27.6490  -19.5780   15.1830   C 0  0  0  0  0  0  0  0  0  0  0  0
   26.7510  -20.2950   15.7020   O 0  0  0  0  0  0  0  0  0  0  0  0
  1  2  2  0  0  0  0
  1  3  1  0  0  0  0
  1  4  1  0  0  0  0
  1  5  1  0  0  0  0
  5  6  1  0  0  0  0
  6  7  1  0  0  0  0
  7  8  1  0  0  0  0
  7  9  1  0  0  0  0
  8 13  1  0  0  0  0
  9 10  1  0  0  0  0
  9 11  1  0  0  0  0
 11 12  1  0  0  0  0
 11 13  1  0  0  0  0
 13 14  1  0  0  0  0
 14 15  1  0  0  0  0
 14 21  1  0  0  0  0
 15 16  2  0  0  0  0
 15 17  1  0  0  0  0
 17 18  1  0  0  0  0
 18 19  2  0  0  0  0
 18 20  1  0  0  0  0
 20 21  2  0  0  0  0
 21 22  1  0  0  0  0
M  END
>  <InstanceId>
1X1Z_BMP_A_301

>  <ChemCompId>
BMP

>  <PdbId>
1X1Z

>  <ChainId>
A

>  <ResidueNumber>
301

>  <InsertionCode>


>  <Model>
1

>  <AltIds>


>  <MissingHeavyAtoms>
0

>  <ObservedFormula>
C9 N2 O10 P

>  <Name>
6-HYDROXYURIDINE-5'-PHOSPHATE

>  <SystematicName>
[(2R,3S,4R,5R)-3,4-dihydroxy-5-(6-hydroxy-2,4-dioxo-pyrimidin-1-yl)oxolan-2-yl]methyl dihydrogen phosphate

>  <Synonyms>


>  <Type>
RNA LINKING

>  <Formula>
C9 H13 N2 O10 P

>  <MolecularWeight>
340.181

>  <ModifiedDate>
2011-06-04

>  <Parent>


>  <OneLetterCode>
N

>  <SubcomponentList>


>  <AmbiguousFlag>
N

>  <InChI>
InChI=1S/C9H13N2O10P/c12-4-1-5(13)11(9(16)10-4)8-7(15)6(14)3(21-8)2-20-22(17,18)19/h1,3,6-8,13-15H,2H2,(H,10,12,16)(H2,17,18,19)/t3-,6-,7-,8-/m1/s1

>  <InChIKey>
UDOBICLZEKUKCV-YXZULKJRSA-N

>  <SMILES>
C1=C(N(C(=O)NC1=O)[C@H]2[C@@H]([C@@H]([C@H](O2)COP(=O)(O)O)O)O)O

$$$$
