5E2P_7P0_A_301
  RCSB PDB08022001103D
Coordinates from PDB:5E2P:A:301 Model:1 without hydrogens
 40 44  0  0  0  0            999 V2000
   42.9850  -20.9830   29.3140   C 0  0  0  0  0  0  0  0  0  0  0  0
   43.2650  -20.7550   28.1400   O 0  0  0  0  0  0  0  0  0  0  0  0
   44.0600  -21.3230   30.2960   C 0  0  0  0  0  0  0  0  0  0  0  0
   43.7760  -22.0270   31.4690   C 0  0  0  0  0  0  0  0  0  0  0  0
   44.7790  -22.3370   32.3700   C 0  0  0  0  0  0  0  0  0  0  0  0
   46.1080  -21.9960   32.0960   C 0  0  0  0  0  0  0  0  0  0  0  0
   46.4180  -21.3190   30.8970   C 0  0  0  0  0  0  0  0  0  0  0  0
   45.3790  -20.9660   30.0190   C 0  0  0  0  0  0  0  0  0  0  0  0
   47.8270  -21.0910   30.6400   C 0  0  0  0  0  0  0  0  0  0  0  0
   48.7770  -21.4840   31.5270   C 0  0  0  0  0  0  0  0  0  0  0  0
   48.4630  -22.1270   32.7630   C 0  0  0  0  0  0  0  0  0  0  0  0
   49.2950  -22.4070   33.6340   O 0  0  0  0  0  0  0  0  0  0  0  0
   47.1340  -22.3640   32.9750   N 0  0  0  0  0  0  0  0  0  0  0  0
   48.1030  -20.5090   29.5000   O 0  0  0  0  0  0  0  0  0  0  0  0
   41.7140  -20.9590   29.7740   N 0  0  0  0  0  0  0  0  0  0  0  0
   40.5690  -20.7300   28.9100   C 0  0  0  0  0  0  0  0  0  0  0  0
   39.8590  -19.4740   29.3890   C 0  0  0  0  0  0  0  0  0  0  0  0
   39.9610  -19.1120   30.5600   O 0  0  0  0  0  0  0  0  0  0  0  0
   39.5780  -21.9100   28.9250   C 0  0  0  0  0  0  0  0  0  0  0  0
   40.2400  -23.2660   28.9120   C 0  0  0  0  0  0  0  0  0  0  0  0
   40.1780  -24.0900   30.0270   C 0  0  0  0  0  0  0  0  0  0  0  0
   41.0390  -23.6540   27.8450   C 0  0  0  0  0  0  0  0  0  0  0  0
   40.9560  -25.2300   30.1120   C 0  0  0  0  0  0  0  0  0  0  0  0
   41.8090  -24.8040   27.9200   C 0  0  0  0  0  0  0  0  0  0  0  0
   41.7830  -25.5860   29.0630   C 0  0  0  0  0  0  0  0  0  0  0  0
   36.7230  -13.6350   27.2900   C 0  0  0  0  0  0  0  0  0  0  0  0
   35.6070  -13.4260   28.0880   C 0  0  0  0  0  0  0  0  0  0  0  0
   35.0990  -14.4750   28.8250   C 0  0  0  0  0  0  0  0  0  0  0  0
   35.6650  -15.7320   28.7740   C 0  0  0  0  0  0  0  0  0  0  0  0
   36.7580  -15.9670   27.9450   C 0  0  0  0  0  0  0  0  0  0  0  0
   37.2950  -14.9030   27.2080   C 0  0  0  0  0  0  0  0  0  0  0  0
   33.7020  -14.2100   29.8480  Cl 0  0  0  0  0  0  0  0  0  0  0  0
   38.4030  -15.1090   26.3310   N 0  0  0  0  0  0  0  0  0  0  0  0
   38.4960  -15.1640   24.9930   C 0  0  0  0  0  0  0  0  0  0  0  0
   39.7290  -15.4170   24.6510   N 0  0  0  0  0  0  0  0  0  0  0  0
   40.4210  -15.5170   25.8140   N 0  0  0  0  0  0  0  0  0  0  0  0
   39.6420  -15.3330   26.8330   N 0  0  0  0  0  0  0  0  0  0  0  0
   37.2650  -17.3800   27.8190   C 0  0  0  0  0  0  0  0  0  0  0  0
   38.3680  -17.6320   28.8050   C 0  0  0  0  0  0  0  0  0  0  0  0
   39.1050  -18.8460   28.4920   N 0  0  0  0  0  0  0  0  0  0  0  0
  1  3  1  0  0  0  0
  1  2  2  0  0  0  0
  1 15  1  0  0  0  0
  3  4  1  0  0  0  0
  3  8  2  0  0  0  0
  4  5  2  0  0  0  0
  5  6  1  0  0  0  0
  8  7  1  0  0  0  0
  7  6  2  0  0  0  0
  7  9  1  0  0  0  0
  6 13  1  0  0  0  0
 13 11  1  0  0  0  0
 11 10  1  0  0  0  0
 11 12  2  0  0  0  0
 10  9  2  0  0  0  0
 15 16  1  0  0  0  0
 16 17  1  0  0  0  0
 16 19  1  0  0  0  0
 17 18  2  0  0  0  0
 17 40  1  0  0  0  0
 19 20  1  0  0  0  0
 20 21  1  0  0  0  0
 20 22  2  0  0  0  0
 21 23  2  0  0  0  0
 22 24  1  0  0  0  0
 23 25  1  0  0  0  0
 24 25  2  0  0  0  0
 26 27  1  0  0  0  0
 26 31  2  0  0  0  0
 27 28  2  0  0  0  0
 28 29  1  0  0  0  0
 28 32  1  0  0  0  0
 29 30  2  0  0  0  0
 30 31  1  0  0  0  0
 30 38  1  0  0  0  0
 31 33  1  0  0  0  0
 33 34  1  0  0  0  0
 33 37  1  0  0  0  0
 34 35  2  0  0  0  0
 35 36  1  0  0  0  0
 36 37  2  0  0  0  0
 38 39  1  0  0  0  0
 39 40  1  0  0  0  0
  9 14  1  0  0  0  0
M  END
>  <InstanceId>
5E2P_7P0_A_301

>  <ChemCompId>
7P0

>  <PdbId>
5E2P

>  <ChainId>
A

>  <ResidueNumber>
301

>  <InsertionCode>


>  <Model>
1

>  <AltIds>


>  <MissingHeavyAtoms>
0

>  <ObservedFormula>
C28 N7 O4 Cl

>  <Name>
N-[(1S)-1-benzyl-2-[2-[5-chloro-2-(tetrazol-1-yl)phenyl]ethylamino]-2-oxo-ethyl]-4-hydroxy-2-oxo-1H-quinoline-6-carboxamide

>  <SystematicName>
N-[(2S)-1-[2-[5-chloranyl-2-(1,2,3,4-tetrazol-1-yl)phenyl]ethylamino]-1-oxidanylidene-3-phenyl-propan-2-yl]-4-oxidanyl-2-oxidanylidene-1H-quinoline-6-carboxamide

>  <Synonyms>


>  <Type>
non-polymer

>  <Formula>
C28 H24 Cl N7 O4

>  <MolecularWeight>
557.988

>  <ModifiedDate>
2015-02-06

>  <Parent>


>  <OneLetterCode>


>  <SubcomponentList>
7DM PHE BXR

>  <AmbiguousFlag>
N

>  <InChI>
InChI=1S/C28H24ClN7O4/c29-20-7-9-24(36-16-31-34-35-36)18(13-20)10-11-30-28(40)23(12-17-4-2-1-3-5-17)33-27(39)19-6-8-22-21(14-19)25(37)15-26(38)32-22/h1-9,13-16,23H,10-12H2,(H,30,40)(H,33,39)(H2,32,37,38)/t23-/m0/s1

>  <InChIKey>
JAUUPTJHJIUVMZ-QHCPKHFHSA-N

>  <SMILES>
c1ccc(cc1)C[C@@H](C(=O)NCCc2cc(ccc2n3cnnn3)Cl)NC(=O)c4ccc5c(c4)C(=CC(=O)N5)O

$$$$
