1UI0_URA_A_211
  RCSB PDB08012016053D
Coordinates from PDB:1UI0:A:211 Model:1 without hydrogens
  8  8  0  0  0  0            999 V2000
   23.2440    9.8690   10.4930   N 0  0  0  0  0  0  0  0  0  0  0  0
   22.3360    8.8680   10.1490   C 0  0  0  0  0  0  0  0  0  0  0  0
   21.9440    8.6400    9.0140   O 0  0  0  0  0  0  0  0  0  0  0  0
   21.8890    8.1140   11.2030   N 0  0  0  0  0  0  0  0  0  0  0  0
   22.2250    8.2260   12.5460   C 0  0  0  0  0  0  0  0  0  0  0  0
   21.8020    7.5230   13.4690   O 0  0  0  0  0  0  0  0  0  0  0  0
   23.1750    9.2990   12.8060   C 0  0  0  0  0  0  0  0  0  0  0  0
   23.6430   10.0660   11.8030   C 0  0  0  0  0  0  0  0  0  0  0  0
  1  2  1  0  0  0  0
  1  8  1  0  0  0  0
  2  3  2  0  0  0  0
  2  4  1  0  0  0  0
  4  5  1  0  0  0  0
  5  6  2  0  0  0  0
  5  7  1  0  0  0  0
  7  8  2  0  0  0  0
M  END
>  <InstanceId>
1UI0_URA_A_211

>  <ChemCompId>
URA

>  <PdbId>
1UI0

>  <ChainId>
A

>  <ResidueNumber>
211

>  <InsertionCode>


>  <Model>
1

>  <AltIds>


>  <MissingHeavyAtoms>
0

>  <ObservedFormula>
C4 N2 O2

>  <Name>
URACIL

>  <SystematicName>
1H-pyrimidine-2,4-dione

>  <Synonyms>


>  <Type>
NON-POLYMER

>  <Formula>
C4 H4 N2 O2

>  <MolecularWeight>
112.087

>  <ModifiedDate>
2011-06-04

>  <Parent>


>  <OneLetterCode>


>  <SubcomponentList>


>  <AmbiguousFlag>
N

>  <InChI>
InChI=1S/C4H4N2O2/c7-3-1-2-5-4(8)6-3/h1-2H,(H2,5,6,7,8)

>  <InChIKey>
ISAKRJDGNUQOIC-UHFFFAOYSA-N

>  <SMILES>
C1=CNC(=O)NC1=O

$$$$
