5FS5_KGM_A_1159
  RCSB PDB08022001253D
Coordinates from PDB:5FS5:A:1159 Model:1 without hydrogens
 19 19  0  0  0  0            999 V2000
   -7.4090    6.5570    1.9320   O 0  0  0  0  0  0  0  0  0  0  0  0
   -6.7230    5.3000    1.7920   C 0  0  0  0  0  0  0  0  0  0  0  0
   -6.6370    4.8900    0.3140   C 0  0  0  0  0  0  0  0  0  0  0  0
   -6.9380   -1.5360   -0.4200   C 0  0  0  0  0  0  0  0  0  0  0  0
   -8.0020    4.7700   -0.1700   O 0  0  0  0  0  0  0  0  0  0  0  0
   -5.9150    5.9480   -0.5230   C 0  0  0  0  0  0  0  0  0  0  0  0
   -4.5230    6.0520   -0.0800   O 0  0  0  0  0  0  0  0  0  0  0  0
   -5.9320    5.5010   -1.9790   C 0  0  0  0  0  0  0  0  0  0  0  0
   -5.3140    6.5340   -2.7560   O 0  0  0  0  0  0  0  0  0  0  0  0
   -7.3730    5.3380   -2.4670   C 0  0  0  0  0  0  0  0  0  0  0  0
   -8.0490    6.5750   -2.3600   O 0  0  0  0  0  0  0  0  0  0  0  0
   -8.1140    4.3610   -1.5640   C 0  0  0  0  0  0  0  0  0  0  0  0
   -7.4790    3.0680   -1.6350   O 0  0  0  0  0  0  0  0  0  0  0  0
   -8.1930    2.0590   -0.8820   C 0  0  0  0  0  0  0  0  0  0  0  0
   -7.3300    0.8250   -1.0550   C 0  0  0  0  0  0  0  0  0  0  0  0
   -7.8790   -0.3460   -0.2340   C 0  0  0  0  0  0  0  0  0  0  0  0
   -6.6560   -5.0020    1.2280   C 0  0  0  0  0  0  0  0  0  0  0  0
   -6.3560   -3.8480    0.2930   C 0  0  0  0  0  0  0  0  0  0  0  0
   -7.3850   -2.7070    0.4630   C 0  0  0  0  0  0  0  0  0  0  0  0
 17 18  1  0  0  0  0
 18 19  1  0  0  0  0
 19  4  1  0  0  0  0
  4 16  1  0  0  0  0
 16 15  1  0  0  0  0
 15 14  1  0  0  0  0
 14 13  1  0  0  0  0
 13 12  1  0  0  0  0
 12 10  1  0  0  0  0
 12  5  1  0  0  0  0
 10 11  1  0  0  0  0
 10  8  1  0  0  0  0
  8  9  1  0  0  0  0
  8  6  1  0  0  0  0
  6  7  1  0  0  0  0
  6  3  1  0  0  0  0
  3  5  1  0  0  0  0
  3  2  1  0  0  0  0
  2  1  1  0  0  0  0
M  END
>  <InstanceId>
5FS5_KGM_A_1159

>  <ChemCompId>
KGM

>  <PdbId>
5FS5

>  <ChainId>
A

>  <ResidueNumber>
1159

>  <InsertionCode>


>  <Model>
1

>  <AltIds>


>  <MissingHeavyAtoms>
0

>  <ObservedFormula>
C13 O6

>  <Name>
heptyl alpha-D-mannopyranoside

>  <SystematicName>
(2S,3S,4S,5S,6R)-2-heptoxy-6-(hydroxymethyl)oxane-3,4,5-triol

>  <Synonyms>
Heptyl Alpha-D-mannopyrannoside; heptyl alpha-D-mannoside; heptyl D-mannoside; heptyl mannoside

>  <Type>
D-saccharide

>  <Formula>
C13 H26 O6

>  <MolecularWeight>
278.342

>  <ModifiedDate>
2020-07-17

>  <Parent>
MAN

>  <OneLetterCode>


>  <SubcomponentList>


>  <AmbiguousFlag>
N

>  <InChI>
InChI=1S/C13H26O6/c1-2-3-4-5-6-7-18-13-12(17)11(16)10(15)9(8-14)19-13/h9-17H,2-8H2,1H3/t9-,10-,11+,12+,13+/m1/s1

>  <InChIKey>
NIDYWHLDTIVRJT-BNDIWNMDSA-N

>  <SMILES>
CCCCCCCO[C@@H]1[C@H]([C@H]([C@@H]([C@H](O1)CO)O)O)O

$$$$
