5UCJ_KU3_A_301
  RCSB PDB08022003113D
Coordinates from PDB:5UCJ:A:301 Model:1 without hydrogens
 25 28  0  0  0  0            999 V2000
  -20.8920  102.7410    2.4220   C 0  0  0  0  0  0  0  0  0  0  0  0
  -21.0100  101.9670    1.1230   C 0  0  0  0  0  0  0  0  0  0  0  0
  -20.7060  102.8790   -0.0800   C 0  0  0  0  0  0  0  0  0  0  0  0
  -22.3960  101.3840    0.8790   C 0  0  0  0  0  0  0  0  0  0  0  0
  -23.5460  102.1250    1.1280   C 0  0  0  0  0  0  0  0  0  0  0  0
  -24.7990  101.5650    0.8420   C 0  0  0  0  0  0  0  0  0  0  0  0
  -24.9230  100.2860    0.3190   C 0  0  0  0  0  0  0  0  0  0  0  0
  -26.1890   99.7630    0.0590   O 0  0  0  0  0  0  0  0  0  0  0  0
  -23.7680   99.5420    0.0540   C 0  0  0  0  0  0  0  0  0  0  0  0
  -22.5200  100.0900    0.3310   C 0  0  0  0  0  0  0  0  0  0  0  0
  -21.5960   99.1990   -0.0110   O 0  0  0  0  0  0  0  0  0  0  0  0
  -22.1840   98.0960   -0.4860   N 0  0  0  0  0  0  0  0  0  0  0  0
  -23.5180   98.1980   -0.4940   C 0  0  0  0  0  0  0  0  0  0  0  0
  -26.0300  102.3880    1.1380   C 0  0  0  0  0  0  0  0  0  0  0  0
  -26.6940  102.9410    0.3280   O 0  0  0  0  0  0  0  0  0  0  0  0
  -26.3350  102.5420    2.5150   N 0  0  0  0  0  0  0  0  0  0  0  0
  -25.6530  101.9030    3.6210   C 0  0  0  0  0  0  0  0  0  0  0  0
  -26.5840  102.1390    4.8100   C 0  0  0  0  0  0  0  0  0  0  0  0
  -27.6160  102.9600    4.4290   C 0  0  0  0  0  0  0  0  0  0  0  0
  -27.4810  103.3260    2.9460   C 0  0  0  0  0  0  0  0  0  0  0  0
  -28.6130  103.3370    5.3460   C 0  0  0  0  0  0  0  0  0  0  0  0
  -28.5170  102.8700    6.6440   C 0  0  0  0  0  0  0  0  0  0  0  0
  -29.4740  103.2310    7.5420   F 0  0  0  0  0  0  0  0  0  0  0  0
  -27.4770  102.0390    7.0380   C 0  0  0  0  0  0  0  0  0  0  0  0
  -26.4910  101.6670    6.1340   C 0  0  0  0  0  0  0  0  0  0  0  0
 12 13  2  0  0  0  0
 12 11  1  0  0  0  0
 13  9  1  0  0  0  0
  1  2  1  0  0  0  0
 11 10  1  0  0  0  0
  9 10  2  0  0  0  0
  9  7  1  0  0  0  0
  8  7  1  0  0  0  0
 10  4  1  0  0  0  0
  7  6  2  0  0  0  0
 15 14  2  0  0  0  0
  4  2  1  0  0  0  0
  4  5  2  0  0  0  0
  6  5  1  0  0  0  0
  6 14  1  0  0  0  0
  2  3  1  0  0  0  0
 14 16  1  0  0  0  0
 16 20  1  0  0  0  0
 16 17  1  0  0  0  0
 20 19  1  0  0  0  0
 17 18  1  0  0  0  0
 19 18  2  0  0  0  0
 19 21  1  0  0  0  0
 18 25  1  0  0  0  0
 21 22  2  0  0  0  0
 25 24  2  0  0  0  0
 22 24  1  0  0  0  0
 22 23  1  0  0  0  0
M  END
>  <InstanceId>
5UCJ_KU3_A_301

>  <ChemCompId>
KU3

>  <PdbId>
5UCJ

>  <ChainId>
A

>  <ResidueNumber>
301

>  <InsertionCode>


>  <Model>
1

>  <AltIds>


>  <MissingHeavyAtoms>
0

>  <ObservedFormula>
C19 N2 O3 F

>  <Name>
(5-fluoroisoindolin-2-yl)(4-hydroxy-5-isopropylbenzo[d]isoxazol-7-yl)methanone

>  <SystematicName>
(5-fluoranyl-1,3-dihydroisoindol-2-yl)-(4-oxidanyl-7-propan-2-yl-1,2-benzoxazol-5-yl)methanone

>  <Synonyms>
(5-fluoro-1,3-dihydro-2H-isoindol-2-yl)[4-hydroxy-7-(propan-2-yl)-1,2-benzoxazol-5-yl]methanone

>  <Type>
NON-POLYMER

>  <Formula>
C19 H17 F N2 O3

>  <MolecularWeight>
340.348

>  <ModifiedDate>
2020-06-17

>  <Parent>


>  <OneLetterCode>


>  <SubcomponentList>


>  <AmbiguousFlag>
N

>  <InChI>
InChI=1S/C19H17FN2O3/c1-10(2)14-6-15(17(23)16-7-21-25-18(14)16)19(24)22-8-11-3-4-13(20)5-12(11)9-22/h3-7,10,23H,8-9H2,1-2H3

>  <InChIKey>
XKVXUSFQFBIYEQ-UHFFFAOYSA-N

>  <SMILES>
CC(C)c1cc(c(c2c1onc2)O)C(=O)N3Cc4ccc(cc4C3)F

$$$$
