4QJ0_WWX_A_303
  RCSB PDB08012023013D
Coordinates from PDB:4QJ0:A:303 Model:1 without hydrogens
 35 37  0  0  0  0            999 V2000
   29.0720    7.1810   12.2030   O 0  0  0  0  0  0  0  0  0  0  0  0
   28.7210    6.6990   10.7700   S 0  0  0  0  0  0  0  0  0  0  0  0
   29.9920    5.8780   10.3770   O 0  0  0  0  0  0  0  0  0  0  0  0
   30.1100    8.7190    9.5440   C 0  0  0  0  0  0  0  0  0  0  0  0
   29.9850    9.7900   10.4560   O 0  0  0  0  0  0  0  0  0  0  0  0
   28.7350    8.0410    9.5560   C 0  0  0  0  0  0  0  0  0  0  0  0
   27.2500    5.6520   10.6850   C 0  0  0  0  0  0  0  0  0  0  0  0
   27.1560    4.9300    9.5020   C 0  0  0  0  0  0  0  0  0  0  0  0
   28.0850    5.0780    8.5000   F 0  0  0  0  0  0  0  0  0  0  0  0
   26.0880    4.0330    9.3360   C 0  0  0  0  0  0  0  0  0  0  0  0
   26.0040    3.3460    8.1790   F 0  0  0  0  0  0  0  0  0  0  0  0
   26.2550    5.5480   11.6850   C 0  0  0  0  0  0  0  0  0  0  0  0
   25.1820    4.6710   11.4670   C 0  0  0  0  0  0  0  0  0  0  0  0
   24.1970    4.4430   12.3000   F 0  0  0  0  0  0  0  0  0  0  0  0
   25.1210    3.9260   10.2950   C 0  0  0  0  0  0  0  0  0  0  0  0
   23.8510    2.6960   10.1090   S 0  0  0  0  0  0  0  0  0  0  0  0
   23.1210    2.9310    8.7890   O 0  0  0  0  0  0  0  0  0  0  0  0
   22.7130    2.3780   11.2170   N 0  0  0  0  0  0  0  0  0  0  0  0
   24.7060    1.4380    9.9240   O 0  0  0  0  0  0  0  0  0  0  0  0
   26.3660    6.3250   12.8590   N 0  0  0  0  0  0  0  0  0  0  0  0
   25.3330    7.3770   13.0780   C 0  0  0  0  0  0  0  0  0  0  0  0
   25.7450    8.5820   12.2560   C 0  0  0  0  0  0  0  0  0  0  0  0
   25.2740    8.6720   10.9350   C 0  0  0  0  0  0  0  0  0  0  0  0
   25.7000    9.7750   10.1130   C 0  0  0  0  0  0  0  0  0  0  0  0
   26.5550   10.7770   10.6150   C 0  0  0  0  0  0  0  0  0  0  0  0
   26.9730   10.6740   11.9540   C 0  0  0  0  0  0  0  0  0  0  0  0
   26.5820    9.5860   12.7630   C 0  0  0  0  0  0  0  0  0  0  0  0
   25.1340    7.7310   14.5770   C 0  0  0  0  0  0  0  0  0  0  0  0
   24.1300    8.6640   14.6520   O 0  0  0  0  0  0  0  0  0  0  0  0
   24.7410    6.4340   15.1850   C 0  0  0  0  0  0  0  0  0  0  0  0
   23.3850    6.0190   15.1030   C 0  0  0  0  0  0  0  0  0  0  0  0
   22.9960    4.7440   15.5410   C 0  0  0  0  0  0  0  0  0  0  0  0
   23.9980    3.9480   16.0640   C 0  0  0  0  0  0  0  0  0  0  0  0
   25.3540    4.4310   16.1880   C 0  0  0  0  0  0  0  0  0  0  0  0
   25.7840    5.6740   15.6950   C 0  0  0  0  0  0  0  0  0  0  0  0
  5  4  1  0  0  0  0
  4  6  1  0  0  0  0
  6  2  1  0  0  0  0
 34 33  2  0  0  0  0
 34 35  1  0  0  0  0
 33 32  1  0  0  0  0
 35 30  2  0  0  0  0
 32 31  2  0  0  0  0
 30 31  1  0  0  0  0
 30 28  1  0  0  0  0
 29 28  1  0  0  0  0
 28 21  1  0  0  0  0
  3  2  2  0  0  0  0
  2  1  2  0  0  0  0
  2  7  1  0  0  0  0
  9  8  1  0  0  0  0
  7  8  2  0  0  0  0
  7 12  1  0  0  0  0
  8 10  1  0  0  0  0
 21 20  1  0  0  0  0
 21 22  1  0  0  0  0
 20 12  1  0  0  0  0
 11 10  1  0  0  0  0
 12 13  2  0  0  0  0
 10 15  2  0  0  0  0
 13 15  1  0  0  0  0
 13 14  1  0  0  0  0
 15 16  1  0  0  0  0
 22 27  2  0  0  0  0
 22 23  1  0  0  0  0
 27 26  1  0  0  0  0
 23 24  2  0  0  0  0
 17 16  2  0  0  0  0
 18 16  1  0  0  0  0
 16 19  2  0  0  0  0
 26 25  2  0  0  0  0
 24 25  1  0  0  0  0
M  END
>  <InstanceId>
4QJ0_WWX_A_303

>  <ChemCompId>
WWX

>  <PdbId>
4QJ0

>  <ChainId>
A

>  <ResidueNumber>
303

>  <InsertionCode>


>  <Model>
1

>  <AltIds>


>  <MissingHeavyAtoms>
0

>  <ObservedFormula>
C22 N2 O6 S2 F3

>  <Name>
2,3,6-trifluoro-5-{[(1R,2S)-2-hydroxy-1,2-diphenylethyl]amino}-4-[(2-hydroxyethyl)sulfonyl]benzenesulfonamide

>  <SystematicName>
2,3,6-tris(fluoranyl)-4-(2-hydroxyethylsulfonyl)-5-[[(1R,2S)-2-oxidanyl-1,2-diphenyl-ethyl]amino]benzenesulfonamide

>  <Synonyms>


>  <Type>
NON-POLYMER

>  <Formula>
C22 H21 F3 N2 O6 S2

>  <MolecularWeight>
530.537

>  <ModifiedDate>
2015-04-10

>  <Parent>


>  <OneLetterCode>


>  <SubcomponentList>


>  <AmbiguousFlag>
N

>  <InChI>
InChI=1S/C22H21F3N2O6S2/c23-15-16(24)22(34(30,31)12-11-28)19(17(25)21(15)35(26,32)33)27-18(13-7-3-1-4-8-13)20(29)14-9-5-2-6-10-14/h1-10,18,20,27-29H,11-12H2,(H2,26,32,33)/t18-,20+/m1/s1

>  <InChIKey>
ZOZJONWJZVJBCD-QUCCMNQESA-N

>  <SMILES>
c1ccc(cc1)[C@H]([C@H](c2ccccc2)O)Nc3c(c(c(c(c3S(=O)(=O)CCO)F)F)S(=O)(=O)N)F

$$$$
