5DUS_APR_A_201
  RCSB PDB08022001093D
Coordinates from PDB:5DUS:A:201 Model:1 without hydrogens
 36 39  0  0  0  0            999 V2000
    4.3270   19.0140   75.5980   N 0  0  0  0  0  0  0  0  0  0  0  0
    3.9050   17.8750   74.9690   C 0  0  0  0  0  0  0  0  0  0  0  0
    2.9220   17.9240   73.9990   N 0  0  0  0  0  0  0  0  0  0  0  0
    2.3700   19.1360   73.6720   C 0  0  0  0  0  0  0  0  0  0  0  0
    2.7940   20.2590   74.2950   C 0  0  0  0  0  0  0  0  0  0  0  0
    3.7760   20.2060   75.2720   C 0  0  0  0  0  0  0  0  0  0  0  0
    4.3130   21.3040   76.0010   N 0  0  0  0  0  0  0  0  0  0  0  0
    2.0980   21.3220   73.8020   N 0  0  0  0  0  0  0  0  0  0  0  0
    1.2420   20.8490   72.8580   C 0  0  0  0  0  0  0  0  0  0  0  0
    1.3930   19.5020   72.7690   N 0  0  0  0  0  0  0  0  0  0  0  0
    0.7910   18.5080   71.9830   C 0  0  0  0  0  0  0  0  0  0  0  0
   -0.2000   18.9770   71.2440   C 0  0  0  0  0  0  0  0  0  0  0  0
   -1.4770   18.9370   71.8910   O 0  0  0  0  0  0  0  0  0  0  0  0
   -0.1980   18.0150   69.9220   C 0  0  0  0  0  0  0  0  0  0  0  0
   -0.8240   16.7620   70.2820   O 0  0  0  0  0  0  0  0  0  0  0  0
    1.8830   18.1590   70.9110   O 0  0  0  0  0  0  0  0  0  0  0  0
    1.1240   17.8160   69.6300   C 0  0  0  0  0  0  0  0  0  0  0  0
    1.6480   18.7340   68.4980   C 0  0  0  0  0  0  0  0  0  0  0  0
    0.9900   19.9810   68.7830   O 0  0  0  0  0  0  0  0  0  0  0  0
    1.2160   21.3420   68.0220   P 0  0  0  0  0  0  0  0  0  0  0  0
   -0.1730   21.9070   67.7300   O 0  0  0  0  0  0  0  0  0  0  0  0
    2.0490   22.2820   68.8810   O 0  0  0  0  0  0  0  0  0  0  0  0
    2.0020   21.0210   66.7130   O 0  0  0  0  0  0  0  0  0  0  0  0
    1.5860   20.7990   65.1800   P 0  0  0  0  0  0  0  0  0  0  0  0
    2.8270   20.2370   64.4860   O 0  0  0  0  0  0  0  0  0  0  0  0
    0.3050   19.9750   65.1030   O 0  0  0  0  0  0  0  0  0  0  0  0
    1.2600   22.2380   64.6300   O 0  0  0  0  0  0  0  0  0  0  0  0
    2.3440   23.1190   64.2740   C 0  0  0  0  0  0  0  0  0  0  0  0
    1.2580   24.9650   65.5600   O 0  0  0  0  0  0  0  0  0  0  0  0
    2.0340   26.1760   67.2700   O 0  0  0  0  0  0  0  0  0  0  0  0
    1.8300   26.1140   65.8740   C 0  0  0  0  0  0  0  0  0  0  0  0
    3.7340   27.3310   65.0690   O 0  0  0  0  0  0  0  0  0  0  0  0
    3.1900   26.0590   65.1660   C 0  0  0  0  0  0  0  0  0  0  0  0
    2.1720   26.5470   62.9770   O 0  0  0  0  0  0  0  0  0  0  0  0
    2.7730   25.4650   63.8230   C 0  0  0  0  0  0  0  0  0  0  0  0
    1.8340   24.5400   64.1450   C 0  0  0  0  0  0  0  0  0  0  0  0
  1  2  1  0  0  0  0
  1  6  2  0  0  0  0
  2  3  2  0  0  0  0
  3  4  1  0  0  0  0
  4  5  2  0  0  0  0
  4 10  1  0  0  0  0
  5  6  1  0  0  0  0
  5  8  1  0  0  0  0
  6  7  1  0  0  0  0
  8  9  2  0  0  0  0
  9 10  1  0  0  0  0
 10 11  1  0  0  0  0
 11 12  1  0  0  0  0
 11 16  1  0  0  0  0
 12 13  1  0  0  0  0
 12 14  1  0  0  0  0
 14 15  1  0  0  0  0
 14 17  1  0  0  0  0
 16 17  1  0  0  0  0
 17 18  1  0  0  0  0
 18 19  1  0  0  0  0
 19 20  1  0  0  0  0
 20 21  2  0  0  0  0
 20 22  1  0  0  0  0
 20 23  1  0  0  0  0
 23 24  1  0  0  0  0
 24 25  2  0  0  0  0
 24 26  1  0  0  0  0
 24 27  1  0  0  0  0
 27 28  1  0  0  0  0
 28 36  1  0  0  0  0
 29 31  1  0  0  0  0
 29 36  1  0  0  0  0
 30 31  1  0  0  0  0
 31 33  1  0  0  0  0
 32 33  1  0  0  0  0
 33 35  1  0  0  0  0
 34 35  1  0  0  0  0
 35 36  1  0  0  0  0
M  END
>  <InstanceId>
5DUS_APR_A_201

>  <ChemCompId>
APR

>  <PdbId>
5DUS

>  <ChainId>
A

>  <ResidueNumber>
201

>  <InsertionCode>


>  <Model>
1

>  <AltIds>


>  <MissingHeavyAtoms>
0

>  <ObservedFormula>
C15 N5 O14 P2

>  <Name>
ADENOSINE-5-DIPHOSPHORIBOSE

>  <SystematicName>
[(2R,3S,4R,5R)-5-(6-aminopurin-9-yl)-3,4-dihydroxy-oxolan-2-yl]methyl [hydroxy-[[(2R,3S,4R,5R)-3,4,5-trihydroxyoxolan-2-yl]methoxy]phosphoryl] hydrogen phosphate

>  <Synonyms>


>  <Type>
NON-POLYMER

>  <Formula>
C15 H23 N5 O14 P2

>  <MolecularWeight>
559.316

>  <ModifiedDate>
2011-06-04

>  <Parent>


>  <OneLetterCode>


>  <SubcomponentList>


>  <AmbiguousFlag>
N

>  <InChI>
InChI=1S/C15H23N5O14P2/c16-12-7-13(18-3-17-12)20(4-19-7)14-10(23)8(21)5(32-14)1-30-35(26,27)34-36(28,29)31-2-6-9(22)11(24)15(25)33-6/h3-6,8-11,14-15,21-25H,1-2H2,(H,26,27)(H,28,29)(H2,16,17,18)/t5-,6-,8-,9-,10-,11-,14-,15-/m1/s1

>  <InChIKey>
SRNWOUGRCWSEMX-KEOHHSTQSA-N

>  <SMILES>
c1nc(c2c(n1)n(cn2)[C@H]3[C@@H]([C@@H]([C@H](O3)CO[P@](=O)(O)O[P@](=O)(O)OC[C@@H]4[C@H]([C@H]([C@@H](O4)O)O)O)O)O)N

$$$$
