6G36_EKH_A_401
  RCSB PDB08022004453D
Coordinates from PDB:6G36:A:401 Model:1 without hydrogens
 20 22  0  0  0  0            999 V2000
   10.3470   12.2700   10.3370  Cl 0  0  0  0  0  0  0  0  0  0  0  0
   11.4030   11.7860   11.6240   C 0  0  0  0  0  0  0  0  0  0  0  0
   11.4660   12.3940   12.9020   C 0  0  0  0  0  0  0  0  0  0  0  0
   10.8270   13.4350   13.6160   C 0  0  0  0  0  0  0  0  0  0  0  0
    9.8200   14.1500   13.0950   N 0  0  0  0  0  0  0  0  0  0  0  0
   12.2980   10.7800   11.5550   C 0  0  0  0  0  0  0  0  0  0  0  0
   12.9750   10.7140   12.7540   N 0  0  0  0  0  0  0  0  0  0  0  0
   12.4760   11.6850   13.5850   C 0  0  0  0  0  0  0  0  0  0  0  0
   12.8580   11.9290   14.8420   N 0  0  0  0  0  0  0  0  0  0  0  0
   12.1970   12.9460   15.4060   C 0  0  0  0  0  0  0  0  0  0  0  0
   11.2260   13.6980   14.8810   N 0  0  0  0  0  0  0  0  0  0  0  0
   14.0440    9.7850   13.1050   C 0  0  0  0  0  0  0  0  0  0  0  0
   14.6330    9.3100   11.9140   O 0  0  0  0  0  0  0  0  0  0  0  0
   14.4560    7.8860   11.7990   C 0  0  0  0  0  0  0  0  0  0  0  0
   14.2460    7.5130   10.3620   C 0  0  0  0  0  0  0  0  0  0  0  0
   13.0330    8.0330    9.8160   O 0  0  0  0  0  0  0  0  0  0  0  0
   13.3030    7.5790   12.7400   C 0  0  0  0  0  0  0  0  0  0  0  0
   13.3470    6.2060   13.1410   O 0  0  0  0  0  0  0  0  0  0  0  0
   13.5550    8.5590   13.8700   C 0  0  0  0  0  0  0  0  0  0  0  0
   14.6110    8.1730   14.7540   O 0  0  0  0  0  0  0  0  0  0  0  0
 16 15  1  0  0  0  0
  1  2  1  0  0  0  0
 15 14  1  0  0  0  0
  6  2  2  0  0  0  0
  6  7  1  0  0  0  0
  2  3  1  0  0  0  0
 14 13  1  0  0  0  0
 14 17  1  0  0  0  0
 13 12  1  0  0  0  0
 17 18  1  0  0  0  0
 17 19  1  0  0  0  0
  7 12  1  0  0  0  0
  7  8  1  0  0  0  0
  3  8  2  0  0  0  0
  3  4  1  0  0  0  0
  5  4  1  0  0  0  0
 12 19  1  0  0  0  0
  8  9  1  0  0  0  0
  4 11  2  0  0  0  0
 19 20  1  0  0  0  0
  9 10  2  0  0  0  0
 11 10  1  0  0  0  0
M  END
>  <InstanceId>
6G36_EKH_A_401

>  <ChemCompId>
EKH

>  <PdbId>
6G36

>  <ChainId>
A

>  <ResidueNumber>
401

>  <InsertionCode>


>  <Model>
1

>  <AltIds>


>  <MissingHeavyAtoms>
0

>  <ObservedFormula>
C11 N4 O4 Cl

>  <Name>
5-chlorotubercidin

>  <SystematicName>
(2~{R},3~{R},4~{S},5~{R})-2-(4-azanyl-5-chloranyl-pyrrolo[2,3-d]pyrimidin-7-yl)-5-(hydroxymethyl)oxolane-3,4-diol

>  <Synonyms>


>  <Type>
NON-POLYMER

>  <Formula>
C11 H13 Cl N4 O4

>  <MolecularWeight>
300.698

>  <ModifiedDate>
2018-04-13

>  <Parent>


>  <OneLetterCode>


>  <SubcomponentList>


>  <AmbiguousFlag>
N

>  <InChI>
InChI=1S/C11H13ClN4O4/c12-4-1-16(10-6(4)9(13)14-3-15-10)11-8(19)7(18)5(2-17)20-11/h1,3,5,7-8,11,17-19H,2H2,(H2,13,14,15)/t5-,7-,8-,11-/m1/s1

>  <InChIKey>
WUHZZVWKGCJQHU-IOSLPCCCSA-N

>  <SMILES>
c1c(c2c(ncnc2n1[C@H]3[C@@H]([C@@H]([C@H](O3)CO)O)O)N)Cl

$$$$
