1QBT_146_B_300
  RCSB PDB08012015473D
Coordinates from PDB:1QBT:B:300 Model:1 without hydrogens
 62 70  0  0  0  0            999 V2000
   -8.8910   15.3150   27.9260   C 0  0  0  0  0  0  0  0  0  0  0  0
   -9.5340   14.7500   30.1640   C 0  0  0  0  0  0  0  0  0  0  0  0
  -10.8640   16.4660   28.9380   C 0  0  0  0  0  0  0  0  0  0  0  0
  -10.5680   17.9230   28.6760   C 0  0  0  0  0  0  0  0  0  0  0  0
  -10.2000   18.1730   27.2290   C 0  0  0  0  0  0  0  0  0  0  0  0
   -8.8220   17.6340   26.9400   C 0  0  0  0  0  0  0  0  0  0  0  0
   -8.1010   15.6010   25.6770   C 0  0  0  0  0  0  0  0  0  0  0  0
   -9.4360   15.5020   31.4490   C 0  0  0  0  0  0  0  0  0  0  0  0
  -10.0550   14.9640   32.5890   C 0  0  0  0  0  0  0  0  0  0  0  0
   -9.9910   15.6700   33.8100   C 0  0  0  0  0  0  0  0  0  0  0  0
   -9.3050   16.9050   33.8870   C 0  0  0  0  0  0  0  0  0  0  0  0
   -8.6810   17.4330   32.7440   C 0  0  0  0  0  0  0  0  0  0  0  0
   -8.7490   16.7310   31.5250   C 0  0  0  0  0  0  0  0  0  0  0  0
  -10.6400   15.1250   35.0420   C 0  0  0  0  0  0  0  0  0  0  0  0
  -11.4080   13.1020   36.1550   C 0  0  0  0  0  0  0  0  0  0  0  0
  -12.7390   12.6320   39.4370   C 0  0  0  0  0  0  0  0  0  0  0  0
  -12.9550   11.3790   40.0430   C 0  0  0  0  0  0  0  0  0  0  0  0
  -12.6530   10.1780   39.3660   C 0  0  0  0  0  0  0  0  0  0  0  0
  -12.1250   10.1800   38.0620   C 0  0  0  0  0  0  0  0  0  0  0  0
  -11.8940   11.4130   37.4260   C 0  0  0  0  0  0  0  0  0  0  0  0
  -12.2120   12.6800   38.1360   C 0  0  0  0  0  0  0  0  0  0  0  0
  -11.9800   15.8390   28.0650   C 0  0  0  0  0  0  0  0  0  0  0  0
  -12.5320   14.5500   28.6140   C 0  0  0  0  0  0  0  0  0  0  0  0
  -12.1320   13.3170   28.0540   C 0  0  0  0  0  0  0  0  0  0  0  0
  -12.5800   12.1150   28.6330   C 0  0  0  0  0  0  0  0  0  0  0  0
  -13.4310   12.1430   29.7610   C 0  0  0  0  0  0  0  0  0  0  0  0
  -13.8410   13.3790   30.3120   C 0  0  0  0  0  0  0  0  0  0  0  0
  -13.3930   14.5870   29.7340   C 0  0  0  0  0  0  0  0  0  0  0  0
   -7.7000   18.2600   27.7930   C 0  0  0  0  0  0  0  0  0  0  0  0
   -6.3490   18.1720   27.1500   C 0  0  0  0  0  0  0  0  0  0  0  0
   -6.0520   19.0350   26.0750   C 0  0  0  0  0  0  0  0  0  0  0  0
   -4.7980   18.9320   25.4510   C 0  0  0  0  0  0  0  0  0  0  0  0
   -3.8510   17.9820   25.8970   C 0  0  0  0  0  0  0  0  0  0  0  0
   -4.1550   17.1360   26.9750   C 0  0  0  0  0  0  0  0  0  0  0  0
   -5.4100   17.2270   27.6040   C 0  0  0  0  0  0  0  0  0  0  0  0
   -8.8260   15.9050   24.4000   C 0  0  0  0  0  0  0  0  0  0  0  0
   -8.0450   16.2010   23.2840   C 0  0  0  0  0  0  0  0  0  0  0  0
   -8.6690   16.4720   22.0580   C 0  0  0  0  0  0  0  0  0  0  0  0
  -10.0710   16.4380   21.9380   C 0  0  0  0  0  0  0  0  0  0  0  0
  -10.8650   16.1340   23.0580   C 0  0  0  0  0  0  0  0  0  0  0  0
  -10.2340   15.8720   24.2930   C 0  0  0  0  0  0  0  0  0  0  0  0
   -7.8390   16.8320   20.8730   C 0  0  0  0  0  0  0  0  0  0  0  0
   -5.6020   16.5760   19.8570   C 0  0  0  0  0  0  0  0  0  0  0  0
   -4.7300   16.8560   16.4100   C 0  0  0  0  0  0  0  0  0  0  0  0
   -3.4800   16.5070   15.8610   C 0  0  0  0  0  0  0  0  0  0  0  0
   -2.4370   16.0290   16.6830   C 0  0  0  0  0  0  0  0  0  0  0  0
   -2.6010   15.8790   18.0760   C 0  0  0  0  0  0  0  0  0  0  0  0
   -3.8330   16.2100   18.6640   C 0  0  0  0  0  0  0  0  0  0  0  0
   -4.9280   16.7160   17.7940   C 0  0  0  0  0  0  0  0  0  0  0  0
   -9.6990   15.5730   28.9690   N 0  0  0  0  0  0  0  0  0  0  0  0
   -8.6770   16.1620   26.8970   N 0  0  0  0  0  0  0  0  0  0  0  0
  -10.8970   13.8210   34.9940   N 0  0  0  0  0  0  0  0  0  0  0  0
  -11.8810   13.6840   37.2790   N 0  0  0  0  0  0  0  0  0  0  0  0
  -11.4020   11.7710   36.2050   N 0  0  0  0  0  0  0  0  0  0  0  0
   -6.5410   16.5010   20.9820   N 0  0  0  0  0  0  0  0  0  0  0  0
   -5.9800   16.9260   18.6130   N 0  0  0  0  0  0  0  0  0  0  0  0
   -4.3320   16.1560   19.9350   N 0  0  0  0  0  0  0  0  0  0  0  0
   -8.3190   14.2420   27.9110   O 0  0  0  0  0  0  0  0  0  0  0  0
  -11.7400   18.6040   29.0060   O 0  0  0  0  0  0  0  0  0  0  0  0
  -10.1230   19.5470   26.9490   O 0  0  0  0  0  0  0  0  0  0  0  0
  -10.8930   15.7950   36.0290   O 0  0  0  0  0  0  0  0  0  0  0  0
   -8.3020   17.3780   19.8870   O 0  0  0  0  0  0  0  0  0  0  0  0
  1 50  1  0  0  0  0
  1 51  1  0  0  0  0
  1 58  2  0  0  0  0
  2  8  1  0  0  0  0
  2 50  1  0  0  0  0
  3  4  1  0  0  0  0
  3 22  1  0  0  0  0
  3 50  1  0  0  0  0
  4  5  1  0  0  0  0
  4 59  1  0  0  0  0
  5  6  1  0  0  0  0
  5 60  1  0  0  0  0
  6 29  1  0  0  0  0
  6 51  1  0  0  0  0
  7 36  1  0  0  0  0
  7 51  1  0  0  0  0
  8  9  2  0  0  0  0
  8 13  1  0  0  0  0
  9 10  1  0  0  0  0
 10 11  2  0  0  0  0
 10 14  1  0  0  0  0
 11 12  1  0  0  0  0
 12 13  2  0  0  0  0
 14 52  1  0  0  0  0
 14 61  2  0  0  0  0
 15 52  1  0  0  0  0
 15 53  1  0  0  0  0
 15 54  2  0  0  0  0
 16 17  1  0  0  0  0
 16 21  2  0  0  0  0
 17 18  2  0  0  0  0
 18 19  1  0  0  0  0
 19 20  2  0  0  0  0
 20 21  1  0  0  0  0
 20 54  1  0  0  0  0
 21 53  1  0  0  0  0
 22 23  1  0  0  0  0
 23 24  2  0  0  0  0
 23 28  1  0  0  0  0
 24 25  1  0  0  0  0
 25 26  2  0  0  0  0
 26 27  1  0  0  0  0
 27 28  2  0  0  0  0
 29 30  1  0  0  0  0
 30 31  2  0  0  0  0
 30 35  1  0  0  0  0
 31 32  1  0  0  0  0
 32 33  2  0  0  0  0
 33 34  1  0  0  0  0
 34 35  2  0  0  0  0
 36 37  2  0  0  0  0
 36 41  1  0  0  0  0
 37 38  1  0  0  0  0
 38 39  2  0  0  0  0
 38 42  1  0  0  0  0
 39 40  1  0  0  0  0
 40 41  2  0  0  0  0
 42 55  1  0  0  0  0
 42 62  2  0  0  0  0
 43 55  1  0  0  0  0
 43 56  2  0  0  0  0
 43 57  1  0  0  0  0
 44 45  2  0  0  0  0
 44 49  1  0  0  0  0
 45 46  1  0  0  0  0
 46 47  2  0  0  0  0
 47 48  1  0  0  0  0
 48 49  2  0  0  0  0
 48 57  1  0  0  0  0
 49 56  1  0  0  0  0
M  END
>  <InstanceId>
1QBT_146_B_300

>  <ChemCompId>
146

>  <PdbId>
1QBT

>  <ChainId>
B

>  <ResidueNumber>
300

>  <InsertionCode>


>  <Model>
1

>  <AltIds>


>  <MissingHeavyAtoms>
0

>  <ObservedFormula>
C49 N8 O5

>  <Name>
[4R-(4ALPHA,5ALPHA,6ALPHA,7ALPHA)]-3,3'-{{TETRAHYDRO-5,6-DIHYDROXY-2-OXO-4,7-BIS(PHENYLMETHYL)-1H-1,3-DIAZEPINE-1,3(2H)-DIYL]BIS(METHYLENE)]BIS[N-1H-BENZIMIDAZOL-2-YLBENZAMIDE]

>  <SystematicName>
N-(1H-benzimidazol-2-yl)-3-[[(4R,5S,6S,7R)-3-[[3-(1H-benzimidazol-2-ylcarbamoyl)phenyl]methyl]-5,6-dihydroxy-2-oxo-4,7-bis(phenylmethyl)-1,3-diazepan-1-yl]methyl]benzamide

>  <Synonyms>
SD146

>  <Type>
NON-POLYMER

>  <Formula>
C49 H44 N8 O5

>  <MolecularWeight>
824.924

>  <ModifiedDate>
2011-06-04

>  <Parent>


>  <OneLetterCode>


>  <SubcomponentList>


>  <AmbiguousFlag>
N

>  <InChI>
InChI=1S/C49H44N8O5/c58-43-41(27-31-13-3-1-4-14-31)56(29-33-17-11-19-35(25-33)45(60)54-47-50-37-21-7-8-22-38(37)51-47)49(62)57(42(44(43)59)28-32-15-5-2-6-16-32)30-34-18-12-20-36(26-34)46(61)55-48-52-39-23-9-10-24-40(39)53-48/h1-26,41-44,58-59H,27-30H2,(H2,50,51,54,60)(H2,52,53,55,61)/t41-,42-,43+,44+/m1/s1

>  <InChIKey>
UWSVAGUSMAEUKO-QHQGJXSCSA-N

>  <SMILES>
c1ccc(cc1)C[C@@H]2[C@@H]([C@H]([C@H](N(C(=O)N2Cc3cccc(c3)C(=O)Nc4[nH]c5ccccc5n4)Cc6cccc(c6)C(=O)Nc7[nH]c8ccccc8n7)Cc9ccccc9)O)O

$$$$
