4W9J_3JH_C_301
  RCSB PDB08022000073D
Coordinates from PDB:4W9J:C:301 Model:1 without hydrogens
 41 43  0  0  0  0            999 V2000
    7.6160   55.7390   96.1890   C 0  0  0  0  0  0  0  0  0  0  0  0
    8.3460   57.0420   95.8070   C 0  0  0  0  0  0  0  0  0  0  0  0
    7.3100   58.0320   95.2780   C 0  0  0  0  0  0  0  0  0  0  0  0
    9.4060   56.8260   94.7260   C 0  0  0  0  0  0  0  0  0  0  0  0
   10.2880   55.6520   95.1670   C 0  0  0  0  0  0  0  0  0  0  0  0
   10.9180   55.9660   96.4610   N 0  0  0  0  0  0  0  0  0  0  0  0
   11.3510   55.0470   97.3580   C 0  0  0  0  0  0  0  0  0  0  0  0
   11.8800   55.3670   98.4280   O 0  0  0  0  0  0  0  0  0  0  0  0
   11.1370   53.5680   97.0270   C 0  0  0  0  0  0  0  0  0  0  0  0
   11.4010   55.3790   94.1280   C 0  0  0  0  0  0  0  0  0  0  0  0
   12.3280   56.1650   93.9560   O 0  0  0  0  0  0  0  0  0  0  0  0
   11.2850   54.2200   93.4890   N 0  0  0  0  0  0  0  0  0  0  0  0
   12.2830   53.7310   92.5490   C 0  0  0  0  0  0  0  0  0  0  0  0
   12.5310   52.2310   92.8770   C 0  0  0  0  0  0  0  0  0  0  0  0
   13.1670   52.1450   94.2760   C 0  0  0  0  0  0  0  0  0  0  0  0
   13.4900   51.5770   91.8560   C 0  0  0  0  0  0  0  0  0  0  0  0
   11.2120   51.4030   92.9100   C 0  0  0  0  0  0  0  0  0  0  0  0
   11.7860   53.9760   91.1190   C 0  0  0  0  0  0  0  0  0  0  0  0
   10.6040   53.8200   90.8760   O 0  0  0  0  0  0  0  0  0  0  0  0
   12.6850   54.3470   90.1800   N 0  0  0  0  0  0  0  0  0  0  0  0
   14.1240   54.6630   90.3350   C 0  0  0  0  0  0  0  0  0  0  0  0
   14.4400   55.6140   89.1830   C 0  0  0  0  0  0  0  0  0  0  0  0
   14.1400   56.9950   89.5450   O 0  0  0  0  0  0  0  0  0  0  0  0
   13.5580   55.2290   88.0680   C 0  0  0  0  0  0  0  0  0  0  0  0
   12.3090   54.6050   88.7430   C 0  0  0  0  0  0  0  0  0  0  0  0
   11.8960   53.4360   88.0570   C 0  0  0  0  0  0  0  0  0  0  0  0
   12.3680   52.3520   88.3630   O 0  0  0  0  0  0  0  0  0  0  0  0
   10.9460   53.5680   87.0830   N 0  0  0  0  0  0  0  0  0  0  0  0
   10.4850   52.4090   86.3180   C 0  0  0  0  0  0  0  0  0  0  0  0
   11.3120   52.2370   85.1610   C 0  0  0  0  0  0  0  0  0  0  0  0
   12.2280   53.2070   84.6850   C 0  0  0  0  0  0  0  0  0  0  0  0
   13.0330   52.9640   83.5500   C 0  0  0  0  0  0  0  0  0  0  0  0
   11.2290   51.0340   84.4600   C 0  0  0  0  0  0  0  0  0  0  0  0
   12.0290   50.7950   83.3210   C 0  0  0  0  0  0  0  0  0  0  0  0
   12.9420   51.7590   82.8470   C 0  0  0  0  0  0  0  0  0  0  0  0
   13.7020   51.5690   81.7500   C 0  0  0  0  0  0  0  0  0  0  0  0
   15.3310   52.1250   81.5140   S 0  0  0  0  0  0  0  0  0  0  0  0
   15.4530   51.5250   79.9770   C 0  0  0  0  0  0  0  0  0  0  0  0
   14.3090   50.9400   79.6390   N 0  0  0  0  0  0  0  0  0  0  0  0
   13.3480   50.9610   80.5940   C 0  0  0  0  0  0  0  0  0  0  0  0
   11.9880   50.3020   80.2970   C 0  0  0  0  0  0  0  0  0  0  0  0
 39 38  2  0  0  0  0
 39 40  1  0  0  0  0
 38 37  1  0  0  0  0
 41 40  1  0  0  0  0
 40 36  2  0  0  0  0
 37 36  1  0  0  0  0
 36 35  1  0  0  0  0
 35 34  2  0  0  0  0
 35 32  1  0  0  0  0
 34 33  1  0  0  0  0
 32 31  2  0  0  0  0
 33 30  2  0  0  0  0
 31 30  1  0  0  0  0
 30 29  1  0  0  0  0
 29 28  1  0  0  0  0
 28 26  1  0  0  0  0
 26 27  2  0  0  0  0
 26 25  1  0  0  0  0
 24 25  1  0  0  0  0
 24 22  1  0  0  0  0
 25 20  1  0  0  0  0
 22 23  1  0  0  0  0
 22 21  1  0  0  0  0
 20 21  1  0  0  0  0
 20 18  1  0  0  0  0
 19 18  2  0  0  0  0
 18 13  1  0  0  0  0
 16 14  1  0  0  0  0
 13 14  1  0  0  0  0
 13 12  1  0  0  0  0
 14 17  1  0  0  0  0
 14 15  1  0  0  0  0
 12 10  1  0  0  0  0
 11 10  2  0  0  0  0
 10  5  1  0  0  0  0
  4  5  1  0  0  0  0
  4  2  1  0  0  0  0
  5  6  1  0  0  0  0
  3  2  1  0  0  0  0
  2  1  1  0  0  0  0
  6  7  1  0  0  0  0
  9  7  1  0  0  0  0
  7  8  2  0  0  0  0
M  END
>  <InstanceId>
4W9J_3JH_C_301

>  <ChemCompId>
3JH

>  <PdbId>
4W9J

>  <ChainId>
C

>  <ResidueNumber>
301

>  <InsertionCode>


>  <Model>
1

>  <AltIds>


>  <MissingHeavyAtoms>
0

>  <ObservedFormula>
C30 N5 O5 S

>  <Name>
N-acetyl-L-leucyl-3-methyl-L-valyl-(4R)-4-hydroxy-N-[4-(4-methyl-1,3-thiazol-5-yl)benzyl]-L-prolinamide

>  <SystematicName>
(2S,4R)-1-[(2S)-2-[[(2S)-2-acetamido-4-methyl-pentanoyl]amino]-3,3-dimethyl-butanoyl]-N-[[4-(4-methyl-1,3-thiazol-5-yl)phenyl]methyl]-4-oxidanyl-pyrrolidine-2-carboxamide

>  <Synonyms>


>  <Type>
NON-POLYMER

>  <Formula>
C30 H43 N5 O5 S

>  <MolecularWeight>
585.758

>  <ModifiedDate>
2014-09-05

>  <Parent>


>  <OneLetterCode>


>  <SubcomponentList>


>  <AmbiguousFlag>
N

>  <InChI>
InChI=1S/C30H43N5O5S/c1-17(2)12-23(33-19(4)36)27(38)34-26(30(5,6)7)29(40)35-15-22(37)13-24(35)28(39)31-14-20-8-10-21(11-9-20)25-18(3)32-16-41-25/h8-11,16-17,22-24,26,37H,12-15H2,1-7H3,(H,31,39)(H,33,36)(H,34,38)/t22-,23+,24+,26-/m1/s1

>  <InChIKey>
PHMXBPXKHLNRTM-DDRRAVBJSA-N

>  <SMILES>
Cc1c(scn1)c2ccc(cc2)CNC(=O)[C@@H]3C[C@H](CN3C(=O)[C@H](C(C)(C)C)NC(=O)[C@H](CC(C)C)NC(=O)C)O

$$$$
