4IIE_CGB_A_943
  RCSB PDB08012022013D
Coordinates from PDB:4IIE:A:943 Model:1 without hydrogens
 12 13  0  0  0  0            999 V2000
   20.9410  -20.4650   22.4700   O 0  0  0  0  0  0  0  0  0  0  0  0
   20.5920  -19.5010   23.4000   C 0  0  0  0  0  0  0  0  0  0  0  0
   19.1180  -18.9740   23.5000   N 0  0  0  0  0  0  0  0  0  0  0  0
   20.9880  -18.2370   22.8110   C 0  0  0  0  0  0  0  0  0  0  0  0
   20.4620  -17.1100   23.7460   C 0  0  0  0  0  0  0  0  0  0  0  0
   19.2500  -17.8180   24.4270   C 0  0  0  0  0  0  0  0  0  0  0  0
   21.1880  -19.8900   24.8180   C 0  0  0  0  0  0  0  0  0  0  0  0
   22.3270  -20.8150   24.9890   O 0  0  0  0  0  0  0  0  0  0  0  0
   21.3630  -18.5390   25.3940   C 0  0  0  0  0  0  0  0  0  0  0  0
   22.6180  -18.2260   26.0010   O 0  0  0  0  0  0  0  0  0  0  0  0
   19.9960  -17.9520   25.7410   C 0  0  0  0  0  0  0  0  0  0  0  0
   20.2540  -16.5820   26.0910   O 0  0  0  0  0  0  0  0  0  0  0  0
  1  2  1  0  0  0  0
  2  3  1  0  0  0  0
  2  4  1  0  0  0  0
  2  7  1  0  0  0  0
  3  6  1  0  0  0  0
  4  5  1  0  0  0  0
  5  6  1  0  0  0  0
  6 11  1  0  0  0  0
  7  8  1  0  0  0  0
  7  9  1  0  0  0  0
  9 10  1  0  0  0  0
  9 11  1  0  0  0  0
 11 12  1  0  0  0  0
M  END
>  <InstanceId>
4IIE_CGB_A_943

>  <ChemCompId>
CGB

>  <PdbId>
4IIE

>  <ChainId>
A

>  <ResidueNumber>
943

>  <InsertionCode>


>  <Model>
1

>  <AltIds>


>  <MissingHeavyAtoms>
0

>  <ObservedFormula>
C7 N O4

>  <Name>
CALYSTEGINE B2

>  <SystematicName>
(1R,2S,3R,4S,5R)-8-azabicyclo[3.2.1]octane-1,2,3,4-tetrol

>  <Synonyms>
(1S,2R,3S,4R,5S)-8-AZABICYCLO[3.2.1]OCTANE-1,2,3,4-TETROL

>  <Type>
NON-POLYMER

>  <Formula>
C7 H13 N O4

>  <MolecularWeight>
175.182

>  <ModifiedDate>
2020-06-17

>  <Parent>


>  <OneLetterCode>


>  <SubcomponentList>


>  <AmbiguousFlag>
N

>  <InChI>
InChI=1S/C7H13NO4/c9-4-3-1-2-7(12,8-3)6(11)5(4)10/h3-6,8-12H,1-2H2/t3-,4+,5-,6+,7-/m1/s1

>  <InChIKey>
FXFBVZOJVHCEDO-IBISWUOJSA-N

>  <SMILES>
C1C[C@]2([C@H]([C@@H]([C@H]([C@@H]1N2)O)O)O)O

$$$$
