5Y12_8JX_A_201
  RCSB PDB08022003413D
Coordinates from PDB:5Y12:A:201 Model:1 without hydrogens
 23 24  0  0  0  0            999 V2000
   -5.8710    4.5890  -15.0670   O 0  0  0  0  0  0  0  0  0  0  0  0
   -6.1510    5.7730  -15.3650   C 0  0  0  0  0  0  0  0  0  0  0  0
   -5.5760    6.7320  -14.7840   O 0  0  0  0  0  0  0  0  0  0  0  0
   -7.1560    6.0560  -16.4170   C 0  0  0  0  0  0  0  0  0  0  0  0
   -7.9790    7.3050  -16.2070   C 0  0  0  0  0  0  0  0  0  0  0  0
   -7.7730    8.4420  -17.1730   C 0  0  0  0  0  0  0  0  0  0  0  0
   -7.8130    8.1210  -18.6310   C 0  0  0  0  0  0  0  0  0  0  0  0
   -7.6650    9.3380  -19.5630   N 0  0  0  0  0  0  0  0  0  0  0  0
   -6.1220    9.7950  -19.6960   S 0  0  0  0  0  0  0  0  0  0  0  0
   -5.6050   10.3650  -18.4290   O 0  0  0  0  0  0  0  0  0  0  0  0
   -6.0460   10.7770  -20.7870   O 0  0  0  0  0  0  0  0  0  0  0  0
   -5.1010    8.3120  -20.0770   C 0  0  0  0  0  0  0  0  0  0  0  0
   -5.1700    7.6540  -21.2970   C 0  0  0  0  0  0  0  0  0  0  0  0
   -6.0460    8.1060  -22.3470   C 0  0  0  0  0  0  0  0  0  0  0  0
   -6.0870    7.4560  -23.5320   C 0  0  0  0  0  0  0  0  0  0  0  0
   -5.2520    6.3060  -23.7450   C 0  0  0  0  0  0  0  0  0  0  0  0
   -4.4200    5.8670  -22.7320   C 0  0  0  0  0  0  0  0  0  0  0  0
   -4.3730    6.5560  -21.5060   C 0  0  0  0  0  0  0  0  0  0  0  0
   -3.5060    6.1060  -20.4800   C 0  0  0  0  0  0  0  0  0  0  0  0
   -2.7060    4.9890  -20.6970   O 0  0  0  0  0  0  0  0  0  0  0  0
   -2.0620    4.3980  -19.6430   C 0  0  0  0  0  0  0  0  0  0  0  0
   -3.4550    6.7500  -19.2760   C 0  0  0  0  0  0  0  0  0  0  0  0
   -4.2470    7.8590  -19.0680   C 0  0  0  0  0  0  0  0  0  0  0  0
 16 15  1  0  0  0  0
 16 17  2  0  0  0  0
 15 14  2  0  0  0  0
 17 18  1  0  0  0  0
 14 13  1  0  0  0  0
 18 13  1  0  0  0  0
 18 19  2  0  0  0  0
 13 12  2  0  0  0  0
 11  9  2  0  0  0  0
 20 19  1  0  0  0  0
 20 21  1  0  0  0  0
 19 22  1  0  0  0  0
 12  9  1  0  0  0  0
 12 23  1  0  0  0  0
  9  8  1  0  0  0  0
  9 10  2  0  0  0  0
  8  7  1  0  0  0  0
 22 23  2  0  0  0  0
  7  6  1  0  0  0  0
  6  5  1  0  0  0  0
  4  5  1  0  0  0  0
  4  2  1  0  0  0  0
  2  1  2  0  0  0  0
  2  3  1  0  0  0  0
M  END
>  <InstanceId>
5Y12_8JX_A_201

>  <ChemCompId>
8JX

>  <PdbId>
5Y12

>  <ChainId>
A

>  <ResidueNumber>
201

>  <InsertionCode>


>  <Model>
1

>  <AltIds>


>  <MissingHeavyAtoms>
0

>  <ObservedFormula>
C16 N O5 S

>  <Name>
5-[(4-methoxynaphthalen-1-yl)sulfonylamino]pentanoic acid

>  <SystematicName>
5-[(4-methoxynaphthalen-1-yl)sulfonylamino]pentanoic acid

>  <Synonyms>


>  <Type>
NON-POLYMER

>  <Formula>
C16 H19 N O5 S

>  <MolecularWeight>
337.391

>  <ModifiedDate>
2018-06-01

>  <Parent>


>  <OneLetterCode>


>  <SubcomponentList>


>  <AmbiguousFlag>
N

>  <InChI>
InChI=1S/C16H19NO5S/c1-22-14-9-10-15(13-7-3-2-6-12(13)14)23(20,21)17-11-5-4-8-16(18)19/h2-3,6-7,9-10,17H,4-5,8,11H2,1H3,(H,18,19)

>  <InChIKey>
ZPHHWDJVJHTZHN-UHFFFAOYSA-N

>  <SMILES>
COc1ccc(c2c1cccc2)S(=O)(=O)NCCCCC(=O)O

$$$$
