4AZ6_OAN_A_1614
  RCSB PDB08012021103D
Coordinates from PDB:4AZ6:A:1614 Model:1 without hydrogens
 25 26  0  0  0  0            999 V2000
   16.6440   28.3000   20.6800   C 0  0  0  0  0  0  0  0  0  0  0  0
   16.6780   28.5570   22.1850   C 0  0  0  0  0  0  0  0  0  0  0  0
   17.3190   29.4780   22.6700   O 0  0  0  0  0  0  0  0  0  0  0  0
   15.9240   27.7410   22.9320   N 0  0  0  0  0  0  0  0  0  0  0  0
   15.7670   27.9320   24.3740   C 0  0  0  0  0  0  0  0  0  0  0  0
   14.8260   29.1540   24.5970   C 0  0  0  0  0  0  0  0  0  0  0  0
   13.4560   28.7200   24.5300   O 0  0  0  0  0  0  0  0  0  0  0  0
   15.1110   29.7540   25.9620   C 0  0  0  0  0  0  0  0  0  0  0  0
   14.2170   30.8200   26.2140   O 0  0  0  0  0  0  0  0  0  0  0  0
   16.5170   30.3370   25.8870   C 0  0  0  0  0  0  0  0  0  0  0  0
   16.9500   31.0220   27.1510   C 0  0  0  0  0  0  0  0  0  0  0  0
   16.9440   30.1440   28.2870   O 0  0  0  0  0  0  0  0  0  0  0  0
   17.4890   29.2220   25.6960   O 0  0  0  0  0  0  0  0  0  0  0  0
   17.0840   28.0710   25.1210   C 0  0  0  0  0  0  0  0  0  0  0  0
   17.8700   27.0350   25.2180   N 0  0  0  0  0  0  0  0  0  0  0  0
   19.0210   27.3280   25.9370   O 0  0  0  0  0  0  0  0  0  0  0  0
   19.6060   26.2770   26.5620   C 0  0  0  0  0  0  0  0  0  0  0  0
   19.0500   25.1810   26.6520   O 0  0  0  0  0  0  0  0  0  0  0  0
   20.8270   26.5840   26.9810   N 0  0  0  0  0  0  0  0  0  0  0  0
   21.7170   25.8240   27.7060   C 0  0  0  0  0  0  0  0  0  0  0  0
   22.6870   26.4880   28.4290   C 0  0  0  0  0  0  0  0  0  0  0  0
   23.6510   25.8660   29.2020   C 0  0  0  0  0  0  0  0  0  0  0  0
   23.6480   24.4710   29.2540   C 0  0  0  0  0  0  0  0  0  0  0  0
   22.6780   23.7710   28.5440   C 0  0  0  0  0  0  0  0  0  0  0  0
   21.7150   24.4560   27.7890   C 0  0  0  0  0  0  0  0  0  0  0  0
  1  2  1  0  0  0  0
  2  3  2  0  0  0  0
  2  4  1  0  0  0  0
  4  5  1  0  0  0  0
  5  6  1  0  0  0  0
  5 14  1  0  0  0  0
  6  7  1  0  0  0  0
  6  8  1  0  0  0  0
  8  9  1  0  0  0  0
  8 10  1  0  0  0  0
 10 11  1  0  0  0  0
 10 13  1  0  0  0  0
 11 12  1  0  0  0  0
 13 14  1  0  0  0  0
 14 15  2  0  0  0  0
 15 16  1  0  0  0  0
 16 17  1  0  0  0  0
 17 18  2  0  0  0  0
 17 19  1  0  0  0  0
 19 20  1  0  0  0  0
 20 21  2  0  0  0  0
 20 25  1  0  0  0  0
 21 22  1  0  0  0  0
 22 23  2  0  0  0  0
 23 24  1  0  0  0  0
 24 25  2  0  0  0  0
M  END
>  <InstanceId>
4AZ6_OAN_A_1614

>  <ChemCompId>
OAN

>  <PdbId>
4AZ6

>  <ChainId>
A

>  <ResidueNumber>
1614

>  <InsertionCode>


>  <Model>
1

>  <AltIds>


>  <MissingHeavyAtoms>
0

>  <ObservedFormula>
C15 N3 O7

>  <Name>
O-(2-ACETAMIDO-2-DEOXY D-GLUCOPYRANOSYLIDENE) AMINO-N-PHENYLCARBAMATE

>  <SystematicName>
[(Z)-[(3R,4R,5S,6R)-3-acetamido-6-(hydroxymethyl)-4,5-bis(oxidanyl)oxan-2-ylidene]amino] N-phenylcarbamate

>  <Synonyms>
PUGNAc

>  <Type>
NON-POLYMER

>  <Formula>
C15 H19 N3 O7

>  <MolecularWeight>
353.327

>  <ModifiedDate>
2011-08-15

>  <Parent>


>  <OneLetterCode>


>  <SubcomponentList>


>  <AmbiguousFlag>
N

>  <InChI>
InChI=1S/C15H19N3O7/c1-8(20)16-11-13(22)12(21)10(7-19)24-14(11)18-25-15(23)17-9-5-3-2-4-6-9/h2-6,10-13,19,21-22H,7H2,1H3,(H,16,20)(H,17,23)/b18-14-/t10-,11-,12-,13-/m1/s1

>  <InChIKey>
PBLNJFVQMUMOJY-JXZOILRNSA-N

>  <SMILES>
CC(=O)N[C@@H]\1[C@H]([C@@H]([C@H](O/C1=N\OC(=O)Nc2ccccc2)CO)O)O

$$$$
