1QK4_IMP_A_300
  RCSB PDB08012015483D
Coordinates from PDB:1QK4:A:300 Model:1 without hydrogens
 23 25  0  0  0  0            999 V2000
   30.5970    4.8380    8.5200   P 0  0  0  0  0  0  0  0  0  0  0  0
   31.6600    5.2520    7.5520   O 0  0  0  0  0  0  0  0  0  0  0  0
   30.3900    3.3610    8.4050   O 0  0  0  0  0  0  0  0  0  0  0  0
   30.9030    5.2830    9.9690   O 0  0  0  0  0  0  0  0  0  0  0  0
   29.1890    5.5410    8.2060   O 0  0  0  0  0  0  0  0  0  0  0  0
   28.8100    6.5940    9.1010   C 0  0  0  0  0  0  0  0  0  0  0  0
   27.4870    7.2540    8.7950   C 0  0  0  0  0  0  0  0  0  0  0  0
   27.7650    7.9630    7.5420   O 0  0  0  0  0  0  0  0  0  0  0  0
   26.2470    6.4230    8.4930   C 0  0  0  0  0  0  0  0  0  0  0  0
   25.4970    6.1000    9.6560   O 0  0  0  0  0  0  0  0  0  0  0  0
   25.4210    7.3240    7.6090   C 0  0  0  0  0  0  0  0  0  0  0  0
   24.5140    8.1210    8.3380   O 0  0  0  0  0  0  0  0  0  0  0  0
   26.5070    8.1630    6.9000   C 0  0  0  0  0  0  0  0  0  0  0  0
   26.6910    7.6500    5.5170   N 0  0  0  0  0  0  0  0  0  0  0  0
   27.6020    6.7690    4.9950   C 0  0  0  0  0  0  0  0  0  0  0  0
   27.4270    6.5730    3.7220   N 0  0  0  0  0  0  0  0  0  0  0  0
   26.3640    7.3620    3.3670   C 0  0  0  0  0  0  0  0  0  0  0  0
   25.7050    7.5340    2.1180   C 0  0  0  0  0  0  0  0  0  0  0  0
   25.9980    7.0220    1.0390   O 0  0  0  0  0  0  0  0  0  0  0  0
   24.5780    8.3890    2.1990   N 0  0  0  0  0  0  0  0  0  0  0  0
   24.1900    9.0100    3.3740   C 0  0  0  0  0  0  0  0  0  0  0  0
   24.8050    8.8160    4.5500   N 0  0  0  0  0  0  0  0  0  0  0  0
   25.8620    8.0070    4.4740   C 0  0  0  0  0  0  0  0  0  0  0  0
  1  2  2  0  0  0  0
  1  3  1  0  0  0  0
  1  4  1  0  0  0  0
  1  5  1  0  0  0  0
  5  6  1  0  0  0  0
  6  7  1  0  0  0  0
  7  8  1  0  0  0  0
  7  9  1  0  0  0  0
  8 13  1  0  0  0  0
  9 10  1  0  0  0  0
  9 11  1  0  0  0  0
 11 12  1  0  0  0  0
 11 13  1  0  0  0  0
 13 14  1  0  0  0  0
 14 15  1  0  0  0  0
 14 23  1  0  0  0  0
 15 16  2  0  0  0  0
 16 17  1  0  0  0  0
 17 18  1  0  0  0  0
 17 23  2  0  0  0  0
 18 19  2  0  0  0  0
 18 20  1  0  0  0  0
 20 21  1  0  0  0  0
 21 22  2  0  0  0  0
 22 23  1  0  0  0  0
M  END
>  <InstanceId>
1QK4_IMP_A_300

>  <ChemCompId>
IMP

>  <PdbId>
1QK4

>  <ChainId>
A

>  <ResidueNumber>
300

>  <InsertionCode>


>  <Model>
1

>  <AltIds>


>  <MissingHeavyAtoms>
0

>  <ObservedFormula>
C10 N4 O8 P

>  <Name>
INOSINIC ACID

>  <SystematicName>
[(2R,3S,4R,5R)-3,4-dihydroxy-5-(6-oxo-1H-purin-9-yl)oxolan-2-yl]methyl dihydrogen phosphate

>  <Synonyms>


>  <Type>
NON-POLYMER

>  <Formula>
C10 H13 N4 O8 P

>  <MolecularWeight>
348.206

>  <ModifiedDate>
2012-01-05

>  <Parent>
G

>  <OneLetterCode>


>  <SubcomponentList>


>  <AmbiguousFlag>
N

>  <InChI>
InChI=1S/C10H13N4O8P/c15-6-4(1-21-23(18,19)20)22-10(7(6)16)14-3-13-5-8(14)11-2-12-9(5)17/h2-4,6-7,10,15-16H,1H2,(H,11,12,17)(H2,18,19,20)/t4-,6-,7-,10-/m1/s1

>  <InChIKey>
GRSZFWQUAKGDAV-KQYNXXCUSA-N

>  <SMILES>
c1nc2c(n1[C@H]3[C@@H]([C@@H]([C@H](O3)COP(=O)(O)O)O)O)N=CNC2=O

$$$$
