2I4X_KGQ_B_300
  RCSB PDB08012017113D
Coordinates from PDB:2I4X:B:300 Model:1 without hydrogens
 49 52  0  0  0  0            999 V2000
   13.4730   22.1090   17.8170   N 0  0  0  0  0  0  0  0  0  0  0  0
   11.7410   17.9830   18.3630   C 0  0  0  0  0  0  0  0  0  0  0  0
   12.3050   18.9340   12.4460   O 0  0  0  0  0  0  0  0  0  0  0  0
   14.4130   22.9560   17.1040   C 0  0  0  0  0  0  0  0  0  0  0  0
   13.7300   23.4230   15.7780   C 0  0  0  0  0  0  0  0  0  0  0  0
   13.3440   22.2380   14.8870   C 0  0  0  0  0  0  0  0  0  0  0  0
   14.3060   21.6160   14.0710   C 0  0  0  0  0  0  0  0  0  0  0  0
   13.9610   20.5220   13.2620   C 0  0  0  0  0  0  0  0  0  0  0  0
   12.6410   20.0320   13.2540   C 0  0  0  0  0  0  0  0  0  0  0  0
   11.4110   17.9640   13.0050   C 0  0  0  0  0  0  0  0  0  0  0  0
   11.4860   16.4440   11.9980   P 0  0  0  0  0  0  0  0  0  0  0  0
   12.9740   15.8600   11.9930   O 0  0  0  0  0  0  0  0  0  0  0  0
   13.5850   15.1940   10.8740   C 0  0  0  0  0  0  0  0  0  0  0  0
   15.0260   14.7800   11.2600   C 0  0  0  0  0  0  0  0  0  0  0  0
   10.5540   15.4320   12.5810   O 0  0  0  0  0  0  0  0  0  0  0  0
   11.0670   16.7420   10.4880   O 0  0  0  0  0  0  0  0  0  0  0  0
    9.8080   17.2670   10.0700   C 0  0  0  0  0  0  0  0  0  0  0  0
    9.8220   17.3870    8.5290   C 0  0  0  0  0  0  0  0  0  0  0  0
   11.6670   20.6530   14.0660   C 0  0  0  0  0  0  0  0  0  0  0  0
   12.0190   21.7510   14.8760   C 0  0  0  0  0  0  0  0  0  0  0  0
   14.7880   24.1500   18.0260   C 0  0  0  0  0  0  0  0  0  0  0  0
   13.6400   24.9830   18.1640   O 0  0  0  0  0  0  0  0  0  0  0  0
   15.9240   25.0660   17.4750   C 0  0  0  0  0  0  0  0  0  0  0  0
   17.2230   24.3480   17.3230   N 0  0  0  0  0  0  0  0  0  0  0  0
   18.2800   24.6180   18.3460   C 0  0  0  0  0  0  0  0  0  0  0  0
   18.1980   23.7680   19.6570   C 0  0  0  0  0  0  0  0  0  0  0  0
   19.5130   22.9770   19.8340   C 0  0  0  0  0  0  0  0  0  0  0  0
   17.0320   22.7470   19.6110   C 0  0  0  0  0  0  0  0  0  0  0  0
   17.8120   24.1050   15.7620   S 0  0  0  0  0  0  0  0  0  0  0  0
   18.7750   23.0300   15.8190   O 0  0  0  0  0  0  0  0  0  0  0  0
   16.7170   23.9160   14.8380   O 0  0  0  0  0  0  0  0  0  0  0  0
   18.6990   25.6000   15.3270   C 0  0  0  0  0  0  0  0  0  0  0  0
   20.0820   25.7000   15.5790   C 0  0  0  0  0  0  0  0  0  0  0  0
   20.7880   26.8630   15.2490   C 0  0  0  0  0  0  0  0  0  0  0  0
   20.1240   27.9520   14.6530   C 0  0  0  0  0  0  0  0  0  0  0  0
   20.8210   29.1170   14.3210   O 0  0  0  0  0  0  0  0  0  0  0  0
   22.1840   29.3210   14.7220   C 0  0  0  0  0  0  0  0  0  0  0  0
   18.7440   27.8520   14.3990   C 0  0  0  0  0  0  0  0  0  0  0  0
   18.0360   26.6850   14.7300   C 0  0  0  0  0  0  0  0  0  0  0  0
   13.7280   20.8210   18.1030   C 0  0  0  0  0  0  0  0  0  0  0  0
   14.7640   20.2300   17.8020   O 0  0  0  0  0  0  0  0  0  0  0  0
   12.6760   20.2780   18.7520   O 0  0  0  0  0  0  0  0  0  0  0  0
   12.7420   18.8820   19.1220   C 0  0  0  0  0  0  0  0  0  0  0  0
   12.2090   18.7940   20.5650   C 0  0  0  0  0  0  0  0  0  0  0  0
   10.8060   18.9500   20.3330   O 0  0  0  0  0  0  0  0  0  0  0  0
   10.4620   18.0910   19.2430   C 0  0  0  0  0  0  0  0  0  0  0  0
    9.4410   18.6750   18.4080   O 0  0  0  0  0  0  0  0  0  0  0  0
   10.0750   19.4490   17.3840   C 0  0  0  0  0  0  0  0  0  0  0  0
   11.2380   18.5220   16.9960   C 0  0  0  0  0  0  0  0  0  0  0  0
  1  4  1  0  0  0  0
  1 40  1  0  0  0  0
  2 49  1  0  0  0  0
  2 43  1  0  0  0  0
  2 46  1  0  0  0  0
  3 10  1  0  0  0  0
  3  9  1  0  0  0  0
  4  5  1  0  0  0  0
  4 21  1  0  0  0  0
  5  6  1  0  0  0  0
  6  7  2  0  0  0  0
  6 20  1  0  0  0  0
  7  8  1  0  0  0  0
  8  9  2  0  0  0  0
  9 19  1  0  0  0  0
 10 11  1  0  0  0  0
 11 16  1  0  0  0  0
 11 12  1  0  0  0  0
 11 15  2  0  0  0  0
 12 13  1  0  0  0  0
 13 14  1  0  0  0  0
 16 17  1  0  0  0  0
 17 18  1  0  0  0  0
 19 20  2  0  0  0  0
 21 23  1  0  0  0  0
 21 22  1  0  0  0  0
 23 24  1  0  0  0  0
 24 29  1  0  0  0  0
 24 25  1  0  0  0  0
 25 26  1  0  0  0  0
 26 28  1  0  0  0  0
 26 27  1  0  0  0  0
 29 31  2  0  0  0  0
 29 32  1  0  0  0  0
 29 30  2  0  0  0  0
 32 39  2  0  0  0  0
 32 33  1  0  0  0  0
 33 34  2  0  0  0  0
 34 35  1  0  0  0  0
 35 36  1  0  0  0  0
 35 38  2  0  0  0  0
 36 37  1  0  0  0  0
 38 39  1  0  0  0  0
 40 41  2  0  0  0  0
 40 42  1  0  0  0  0
 42 43  1  0  0  0  0
 43 44  1  0  0  0  0
 44 45  1  0  0  0  0
 45 46  1  0  0  0  0
 46 47  1  0  0  0  0
 47 48  1  0  0  0  0
 48 49  1  0  0  0  0
M  END
>  <InstanceId>
2I4X_KGQ_B_300

>  <ChemCompId>
KGQ

>  <PdbId>
2I4X

>  <ChainId>
B

>  <ResidueNumber>
300

>  <InsertionCode>


>  <Model>
1

>  <AltIds>


>  <MissingHeavyAtoms>
0

>  <ObservedFormula>
C33 N2 O12 P S

>  <Name>
DIETHYL ({4-[(2S,3R)-2-({[(3R,3AS,6AR)-HEXAHYDROFURO[2,3-B]FURAN-3-YLOXY]CARBONYL}AMINO)-3-HYDROXY-4-{ISOBUTYL[(4-METHOXYPHENYL)SULFONYL]AMINO}BUTYL]PHENOXY}METHYL)PHOSPHONATE

>  <SystematicName>
[(3R,3aS,6aR)-2,3,3a,4,5,6a-hexahydrofuro[3,2-d]furan-3-yl] N-[(2S,3R)-1-[4-(diethoxyphosphorylmethoxy)phenyl]-3-hydroxy-4-[(4-methoxyphenyl)sulfonyl-(2-methylpropyl)amino]butan-2-yl]carbamate

>  <Synonyms>


>  <Type>
NON-POLYMER

>  <Formula>
C33 H49 N2 O12 P S

>  <MolecularWeight>
728.787

>  <ModifiedDate>
2011-06-04

>  <Parent>


>  <OneLetterCode>


>  <SubcomponentList>


>  <AmbiguousFlag>


>  <InChI>
InChI=1S/C33H49N2O12PS/c1-6-45-48(38,46-7-2)22-44-26-10-8-24(9-11-26)18-29(34-33(37)47-31-21-43-32-28(31)16-17-42-32)30(36)20-35(19-23(3)4)49(39,40)27-14-12-25(41-5)13-15-27/h8-15,23,28-32,36H,6-7,16-22H2,1-5H3,(H,34,37)/t28-,29-,30+,31-,32+/m0/s1

>  <InChIKey>
FCLYPCIMVVLLRN-FXSYQQGGSA-N

>  <SMILES>
CCOP(=O)(COc1ccc(cc1)C[C@@H]([C@@H](C[N@](CC(C)C)S(=O)(=O)c2ccc(cc2)OC)O)NC(=O)O[C@H]3CO[C@@H]4[C@H]3CCO4)OCC

$$$$
