4YES_45S_B_704
  RCSB PDB08022000293D
Coordinates from PDB:4YES:B:704 Model:1 without hydrogens
 26 28  0  0  0  0            999 V2000
    4.2200   19.8170   49.5520   C 0  0  0  0  0  0  0  0  0  0  0  0
    3.4920   18.9290   48.6850   C 0  0  0  0  0  0  0  0  0  0  0  0
    5.3360   20.1470   49.1810   O 0  0  0  0  0  0  0  0  0  0  0  0
    2.1650   18.5500   48.6220   C 0  0  0  0  0  0  0  0  0  0  0  0
    2.0160   17.6620   47.5280   C 0  0  0  0  0  0  0  0  0  0  0  0
    3.2540   17.5410   46.9350   C 0  0  0  0  0  0  0  0  0  0  0  0
    4.1280   18.3050   47.6530   N 0  0  0  0  0  0  0  0  0  0  0  0
    3.7120   16.7670   45.7770   C 0  0  0  0  0  0  0  0  0  0  0  0
    3.6510   20.2560   50.7350   N 0  0  0  0  0  0  0  0  0  0  0  0
    4.1950   21.3560   51.5060   C 0  0  0  0  0  0  0  0  0  0  0  0
    5.6950   21.2390   51.5730   C 0  0  0  0  0  0  0  0  0  0  0  0
    6.2950   20.2290   51.9240   O 0  0  0  0  0  0  0  0  0  0  0  0
    3.5800   21.1610   52.8730   C 0  0  0  0  0  0  0  0  0  0  0  0
    2.2260   20.5490   52.5860   C 0  0  0  0  0  0  0  0  0  0  0  0
    2.4850   19.6830   51.3790   C 0  0  0  0  0  0  0  0  0  0  0  0
    6.3120   22.4000   51.1470   N 0  0  0  0  0  0  0  0  0  0  0  0
    7.7430   22.5270   51.2630   C 0  0  0  0  0  0  0  0  0  0  0  0
    8.4980   22.5280   49.9720   C 0  0  0  0  0  0  0  0  0  0  0  0
    9.1980   21.4230   49.5200   C 0  0  0  0  0  0  0  0  0  0  0  0
    9.2060   20.1300   50.2780   C 0  0  0  0  0  0  0  0  0  0  0  0
    8.2080   19.1800   49.7090   N 0  0  0  0  0  0  0  0  0  0  0  0
    9.9240   21.4610   48.3480   C 0  0  0  0  0  0  0  0  0  0  0  0
    9.9720   22.6340   47.6080   C 0  0  0  0  0  0  0  0  0  0  0  0
    9.2500   23.7270   48.0400   C 0  0  0  0  0  0  0  0  0  0  0  0
    9.2710   25.1700   47.0540  Cl 0  0  0  0  0  0  0  0  0  0  0  0
    8.5290   23.6900   49.2160   C 0  0  0  0  0  0  0  0  0  0  0  0
 14 15  1  0  0  0  0
 14 13  1  0  0  0  0
 15  9  1  0  0  0  0
  9  1  1  0  0  0  0
  9 10  1  0  0  0  0
 10 13  1  0  0  0  0
 10 11  1  0  0  0  0
 11 12  2  0  0  0  0
 11 16  1  0  0  0  0
 17 18  1  0  0  0  0
 17 16  1  0  0  0  0
  1  2  1  0  0  0  0
  1  3  2  0  0  0  0
  2  4  2  0  0  0  0
  2  7  1  0  0  0  0
 18 19  2  0  0  0  0
 18 26  1  0  0  0  0
 19 22  1  0  0  0  0
 19 20  1  0  0  0  0
 22 23  2  0  0  0  0
 23 24  1  0  0  0  0
 24 25  1  0  0  0  0
 24 26  2  0  0  0  0
 20 21  1  0  0  0  0
  4  5  1  0  0  0  0
  5  6  2  0  0  0  0
  6  8  1  0  0  0  0
  6  7  1  0  0  0  0
M  END
>  <InstanceId>
4YES_45S_B_704

>  <ChemCompId>
45S

>  <PdbId>
4YES

>  <ChainId>
B

>  <ResidueNumber>
704

>  <InsertionCode>


>  <Model>
1

>  <AltIds>


>  <MissingHeavyAtoms>
0

>  <ObservedFormula>
C19 N4 O2 Cl

>  <Name>
N-[2-(aminomethyl)-5-chlorobenzyl]-1-[(5-methyl-1H-pyrrol-2-yl)carbonyl]-L-prolinamide

>  <SystematicName>
(2S)-N-[[2-(aminomethyl)-5-chloranyl-phenyl]methyl]-1-[(5-methyl-1H-pyrrol-2-yl)carbonyl]pyrrolidine-2-carboxamide

>  <Synonyms>


>  <Type>
NON-POLYMER

>  <Formula>
C19 H23 Cl N4 O2

>  <MolecularWeight>
374.865

>  <ModifiedDate>
2015-06-12

>  <Parent>


>  <OneLetterCode>


>  <SubcomponentList>
5M1 PRO 00T

>  <AmbiguousFlag>
N

>  <InChI>
InChI=1S/C19H23ClN4O2/c1-12-4-7-16(23-12)19(26)24-8-2-3-17(24)18(25)22-11-14-9-15(20)6-5-13(14)10-21/h4-7,9,17,23H,2-3,8,10-11,21H2,1H3,(H,22,25)/t17-/m0/s1

>  <InChIKey>
BBKKBBGFERPRGT-KRWDZBQOSA-N

>  <SMILES>
Cc1ccc([nH]1)C(=O)N2CCC[C@H]2C(=O)NCc3cc(ccc3CN)Cl

$$$$
