6DIL_TPV_B_201
  RCSB PDB08022004233D
Coordinates from PDB:6DIL:B:201 Model:1 without hydrogens
 42 45  0  0  0  0            999 V2000
   13.3290   21.8950   62.8530   O 0  0  0  0  0  0  0  0  0  0  0  0
   12.1840   21.2230   63.1020   C 0  0  0  0  0  0  0  0  0  0  0  0
   12.1690   19.9290   63.6580   C 0  0  0  0  0  0  0  0  0  0  0  0
   13.4410   19.4290   63.9600   C 0  0  0  0  0  0  0  0  0  0  0  0
   14.6410   20.0240   63.5610   C 0  0  0  0  0  0  0  0  0  0  0  0
   14.5560   21.5470   63.4800   C 0  0  0  0  0  0  0  0  0  0  0  0
   11.1460   21.8260   62.7180   O 0  0  0  0  0  0  0  0  0  0  0  0
   13.5980   18.2010   64.4990   O 0  0  0  0  0  0  0  0  0  0  0  0
   14.7020   22.0100   64.9410   C 0  0  0  0  0  0  0  0  0  0  0  0
   14.5400   23.4850   65.1910   C 0  0  0  0  0  0  0  0  0  0  0  0
   14.6670   23.8490   66.6770   C 0  0  0  0  0  0  0  0  0  0  0  0
   15.6800   22.1480   62.6150   C 0  0  0  0  0  0  0  0  0  0  0  0
   15.7060   21.7420   61.1480   C 0  0  0  0  0  0  0  0  0  0  0  0
   16.7500   22.3580   60.4560   C 0  0  0  0  0  0  0  0  0  0  0  0
   16.5380   23.4950   59.6820   C 0  0  0  0  0  0  0  0  0  0  0  0
   17.5890   24.0670   58.9760   C 0  0  0  0  0  0  0  0  0  0  0  0
   18.8910   23.5880   59.1140   C 0  0  0  0  0  0  0  0  0  0  0  0
   19.1020   22.4070   59.8250   C 0  0  0  0  0  0  0  0  0  0  0  0
   18.0450   21.8620   60.5380   C 0  0  0  0  0  0  0  0  0  0  0  0
   10.9710   19.2310   63.8520   C 0  0  0  0  0  0  0  0  0  0  0  0
   10.7810   18.5360   65.1890   C 0  0  0  0  0  0  0  0  0  0  0  0
   10.8680   19.4360   66.4110   C 0  0  0  0  0  0  0  0  0  0  0  0
   10.5300   18.3750   62.8440   C 0  0  0  0  0  0  0  0  0  0  0  0
   11.4050   17.7650   61.9600   C 0  0  0  0  0  0  0  0  0  0  0  0
   10.9450   16.9020   60.9470   C 0  0  0  0  0  0  0  0  0  0  0  0
    9.5940   16.6530   60.7580   C 0  0  0  0  0  0  0  0  0  0  0  0
    8.6840   17.1580   61.7160   C 0  0  0  0  0  0  0  0  0  0  0  0
    7.3600   16.9880   61.4990   N 0  0  0  0  0  0  0  0  0  0  0  0
    9.1620   18.0450   62.6670   C 0  0  0  0  0  0  0  0  0  0  0  0
    6.6810   15.6270   62.1570   S 0  0  0  0  0  0  0  0  0  0  0  0
    5.2780   15.4100   61.6550   O 0  0  0  0  0  0  0  0  0  0  0  0
    7.5890   14.4170   61.7740   O 0  0  0  0  0  0  0  0  0  0  0  0
    6.8450   15.9370   63.8770   C 0  0  0  0  0  0  0  0  0  0  0  0
    7.8400   15.3600   64.5800   N 0  0  0  0  0  0  0  0  0  0  0  0
    7.9670   15.6390   65.9510   C 0  0  0  0  0  0  0  0  0  0  0  0
    7.0420   16.4570   66.6070   C 0  0  0  0  0  0  0  0  0  0  0  0
    6.0030   17.0370   65.8600   C 0  0  0  0  0  0  0  0  0  0  0  0
    5.8950   16.7250   64.5040   C 0  0  0  0  0  0  0  0  0  0  0  0
    7.2040   16.8850   67.9180   C 0  0  0  0  0  0  0  0  0  0  0  0
    7.8230   16.0320   68.7150   F 0  0  0  0  0  0  0  0  0  0  0  0
    6.0570   17.3250   68.4070   F 0  0  0  0  0  0  0  0  0  0  0  0
    8.0220   17.9600   67.8810   F 0  0  0  0  0  0  0  0  0  0  0  0
  1  2  1  0  0  0  0
  1  6  1  0  0  0  0
  2  3  1  0  0  0  0
  2  7  2  0  0  0  0
  3  4  2  0  0  0  0
  3 20  1  0  0  0  0
  4  5  1  0  0  0  0
  4  8  1  0  0  0  0
  5  6  1  0  0  0  0
  6  9  1  0  0  0  0
  6 12  1  0  0  0  0
  9 10  1  0  0  0  0
 10 11  1  0  0  0  0
 12 13  1  0  0  0  0
 13 14  1  0  0  0  0
 14 15  2  0  0  0  0
 14 19  1  0  0  0  0
 15 16  1  0  0  0  0
 16 17  2  0  0  0  0
 17 18  1  0  0  0  0
 18 19  2  0  0  0  0
 20 21  1  0  0  0  0
 20 23  1  0  0  0  0
 21 22  1  0  0  0  0
 23 24  2  0  0  0  0
 23 29  1  0  0  0  0
 24 25  1  0  0  0  0
 25 26  2  0  0  0  0
 26 27  1  0  0  0  0
 27 28  1  0  0  0  0
 27 29  2  0  0  0  0
 28 30  1  0  0  0  0
 30 31  2  0  0  0  0
 30 32  2  0  0  0  0
 30 33  1  0  0  0  0
 33 34  2  0  0  0  0
 33 38  1  0  0  0  0
 34 35  1  0  0  0  0
 35 36  2  0  0  0  0
 36 37  1  0  0  0  0
 36 39  1  0  0  0  0
 37 38  2  0  0  0  0
 39 40  1  0  0  0  0
 39 41  1  0  0  0  0
 39 42  1  0  0  0  0
M  END
>  <InstanceId>
6DIL_TPV_B_201

>  <ChemCompId>
TPV

>  <PdbId>
6DIL

>  <ChainId>
B

>  <ResidueNumber>
201

>  <InsertionCode>


>  <Model>
1

>  <AltIds>


>  <MissingHeavyAtoms>
0

>  <ObservedFormula>
C31 N2 O5 S F3

>  <Name>
N-(3-{(1R)-1-[(6R)-4-HYDROXY-2-OXO-6-PHENETHYL-6-PROPYL-5,6-DIHYDRO-2H-PYRAN-3-YL]PROPYL}PHENYL)-5-(TRIFLUOROMETHYL)-2-PYRIDINESULFONAMIDE

>  <SystematicName>
N-[3-[(1R)-1-[(6R)-4-hydroxy-2-oxo-6-phenethyl-6-propyl-5H-pyran-3-yl]propyl]phenyl]-5-(trifluoromethyl)pyridine-2-sulfonamide

>  <Synonyms>
TIPRANAVIR

>  <Type>
NON-POLYMER

>  <Formula>
C31 H33 F3 N2 O5 S

>  <MolecularWeight>
602.664

>  <ModifiedDate>
2011-06-04

>  <Parent>


>  <OneLetterCode>


>  <SubcomponentList>


>  <AmbiguousFlag>
N

>  <InChI>
InChI=1S/C31H33F3N2O5S/c1-3-16-30(17-15-21-9-6-5-7-10-21)19-26(37)28(29(38)41-30)25(4-2)22-11-8-12-24(18-22)36-42(39,40)27-14-13-23(20-35-27)31(32,33)34/h5-14,18,20,25,36-37H,3-4,15-17,19H2,1-2H3/t25-,30-/m1/s1

>  <InChIKey>
SUJUHGSWHZTSEU-FYBSXPHGSA-N

>  <SMILES>
CCC[C@]1(CC(=C(C(=O)O1)[C@H](CC)c2cccc(c2)NS(=O)(=O)c3ccc(cn3)C(F)(F)F)O)CCc4ccccc4

$$$$
