5LAQ_6M5_A_1005
  RCSB PDB08022002103D
Coordinates from PDB:5LAQ:A:1005 Model:1 without hydrogens
 43 48  0  0  0  0            999 V2000
    4.8520  -41.8290    3.7060   C 0  0  0  0  0  0  0  0  0  0  0  0
    4.1260  -41.8580    4.9080   C 0  0  0  0  0  0  0  0  0  0  0  0
    4.5150  -42.1820    7.2770   C 0  0  0  0  0  0  0  0  0  0  0  0
    3.9450  -43.3310    8.0740   C 0  0  0  0  0  0  0  0  0  0  0  0
    2.4900  -43.6410    7.8000   C 0  0  0  0  0  0  0  0  0  0  0  0
    1.8520  -44.5410    8.8280   C 0  0  0  0  0  0  0  0  0  0  0  0
   -0.1500  -45.9070    8.9960   C 0  0  0  0  0  0  0  0  0  0  0  0
   -4.6260  -49.5860   11.5620   N 0  0  0  0  0  0  0  0  0  0  0  0
   -3.6460  -50.0180   12.2860   N 0  0  0  0  0  0  0  0  0  0  0  0
   -2.4830  -49.4200   11.9190   N 0  0  0  0  0  0  0  0  0  0  0  0
    0.3960  -39.9990    5.1220   N 0  0  0  0  0  0  0  0  0  0  0  0
    0.2700  -46.6110   10.1160   C 0  0  0  0  0  0  0  0  0  0  0  0
   -1.8810  -47.6850   10.2500   C 0  0  0  0  0  0  0  0  0  0  0  0
   -1.8700  -41.4350    6.1520   C 0  0  0  0  0  0  0  0  0  0  0  0
   -1.1740  -38.7420    1.2280   C 0  0  0  0  0  0  0  0  0  0  0  0
   -2.3790  -37.8070    4.7310   O 0  0  0  0  0  0  0  0  0  0  0  0
   -1.2350  -38.2520    4.6020   C 0  0  0  0  0  0  0  0  0  0  0  0
   -0.8170  -39.3720    5.2860   N 0  0  0  0  0  0  0  0  0  0  0  0
   -1.6690  -39.9370    6.3490   C 0  0  0  0  0  0  0  0  0  0  0  0
   -1.1060  -39.5030    7.6960   C 0  0  0  0  0  0  0  0  0  0  0  0
   -1.9980  -39.7960    8.9000   C 0  0  0  0  0  0  0  0  0  0  0  0
   -1.7950  -41.1700    9.5220   C 0  0  0  0  0  0  0  0  0  0  0  0
   -1.6740  -42.3040    8.5400   C 0  0  0  0  0  0  0  0  0  0  0  0
   -2.5580  -42.1600    7.3090   C 0  0  0  0  0  0  0  0  0  0  0  0
   -0.2120  -37.6600    3.6770   C 0  0  0  0  0  0  0  0  0  0  0  0
    0.6150  -38.8020    3.0210   C 0  0  0  0  0  0  0  0  0  0  0  0
   -0.2780  -39.6010    2.0420   C 0  0  0  0  0  0  0  0  0  0  0  0
   -1.3110  -37.4450    1.4250   C 0  0  0  0  0  0  0  0  0  0  0  0
   -0.7840  -36.7130    2.6160   C 0  0  0  0  0  0  0  0  0  0  0  0
    1.1250  -39.7330    4.0980   C 0  0  0  0  0  0  0  0  0  0  0  0
    2.4320  -40.4260    3.9490   C 0  0  0  0  0  0  0  0  0  0  0  0
    3.1580  -40.4080    2.7670   C 0  0  0  0  0  0  0  0  0  0  0  0
    4.3490  -41.1100    2.6430   C 0  0  0  0  0  0  0  0  0  0  0  0
    6.0170  -42.5500    3.7140   O 0  0  0  0  0  0  0  0  0  0  0  0
    6.9620  -42.3600    2.6650   C 0  0  0  0  0  0  0  0  0  0  0  0
    2.9130  -41.1970    5.0060   C 0  0  0  0  0  0  0  0  0  0  0  0
    4.6590  -42.6180    5.9130   O 0  0  0  0  0  0  0  0  0  0  0  0
    0.5970  -44.9930    8.2990   O 0  0  0  0  0  0  0  0  0  0  0  0
   -1.4220  -46.1130    8.4980   C 0  0  0  0  0  0  0  0  0  0  0  0
   -2.2910  -46.9740    9.1310   C 0  0  0  0  0  0  0  0  0  0  0  0
   -0.5960  -47.4900   10.7380   C 0  0  0  0  0  0  0  0  0  0  0  0
   -2.7980  -48.5930   10.9300   C 0  0  0  0  0  0  0  0  0  0  0  0
   -4.1130  -48.6820   10.7140   N 0  0  0  0  0  0  0  0  0  0  0  0
 23 24  1  0  0  0  0
 23 22  1  0  0  0  0
 24 14  1  0  0  0  0
 22 21  1  0  0  0  0
 14 19  1  0  0  0  0
  8  9  2  0  0  0  0
  8 43  1  0  0  0  0
  9 10  1  0  0  0  0
 10 42  1  0  0  0  0
 43 42  2  0  0  0  0
 16 17  2  0  0  0  0
 19 20  1  0  0  0  0
 19 18  1  0  0  0  0
 21 20  1  0  0  0  0
 42 13  1  0  0  0  0
 17 18  1  0  0  0  0
 17 25  1  0  0  0  0
 13 41  2  0  0  0  0
 13 40  1  0  0  0  0
 41 12  1  0  0  0  0
 18 11  1  0  0  0  0
 40 39  2  0  0  0  0
 12  7  2  0  0  0  0
 39  7  1  0  0  0  0
 25 29  1  0  0  0  0
 25 26  1  0  0  0  0
 29 28  1  0  0  0  0
  7 38  1  0  0  0  0
 11 30  2  0  0  0  0
 38  6  1  0  0  0  0
  6  5  1  0  0  0  0
  5  4  1  0  0  0  0
 28 15  2  0  0  0  0
 30 26  1  0  0  0  0
 30 31  1  0  0  0  0
 26 27  1  0  0  0  0
 15 27  1  0  0  0  0
  3  4  1  0  0  0  0
  3 37  1  0  0  0  0
 36 31  2  0  0  0  0
 36  2  1  0  0  0  0
 31 32  1  0  0  0  0
 37  2  1  0  0  0  0
  2  1  2  0  0  0  0
 32 33  2  0  0  0  0
  1 33  1  0  0  0  0
  1 34  1  0  0  0  0
 34 35  1  0  0  0  0
M  END
>  <InstanceId>
5LAQ_6M5_A_1005

>  <ChemCompId>
6M5

>  <PdbId>
5LAQ

>  <ChainId>
A

>  <ResidueNumber>
1005

>  <InsertionCode>


>  <Model>
1

>  <AltIds>


>  <MissingHeavyAtoms>
0

>  <ObservedFormula>
C33 N6 O4

>  <Name>
(4~{a}~{S},8~{a}~{R})-2-cycloheptyl-4-[4-methoxy-3-[4-[4-(1~{H}-1,2,3,4-tetrazol-5-yl)phenoxy]butoxy]phenyl]-4~{a},5,8,8~{a}-tetrahydrophthalazin-1-one

>  <SystematicName>
(4~{a}~{S},8~{a}~{R})-2-cycloheptyl-4-[4-methoxy-3-[4-[4-(1~{H}-1,2,3,4-tetrazol-5-yl)phenoxy]butoxy]phenyl]-4~{a},5,8,8~{a}-tetrahydrophthalazin-1-one

>  <Synonyms>


>  <Type>
NON-POLYMER

>  <Formula>
C33 H40 N6 O4

>  <MolecularWeight>
584.708

>  <ModifiedDate>
2017-11-24

>  <Parent>


>  <OneLetterCode>


>  <SubcomponentList>


>  <AmbiguousFlag>
N

>  <InChI>
InChI=1S/C33H40N6O4/c1-41-29-19-16-24(31-27-12-6-7-13-28(27)33(40)39(36-31)25-10-4-2-3-5-11-25)22-30(29)43-21-9-8-20-42-26-17-14-23(15-18-26)32-34-37-38-35-32/h6-7,14-19,22,25,27-28H,2-5,8-13,20-21H2,1H3,(H,34,35,37,38)/t27-,28+/m0/s1

>  <InChIKey>
DNDNLFXKQSTINI-WUFINQPMSA-N

>  <SMILES>
COc1ccc(cc1OCCCCOc2ccc(cc2)c3[nH]nnn3)C4=NN(C(=O)[C@H]5[C@@H]4CC=CC5)C6CCCCCC6

$$$$
