1Y1Z_192_A_293
  RCSB PDB08012016253D
Coordinates from PDB:1Y1Z:A:293 Model:1 without hydrogens
  8  8  0  0  0  0            999 V2000
   21.1770   31.2640    7.6480   N 0  0  0  0  0  0  0  0  0  0  0  0
   22.9300   34.0990    8.9290   O 0  0  0  0  0  0  0  0  0  0  0  0
   21.3890   32.6990    7.8520   C 0  0  0  0  0  0  0  0  0  0  0  0
   22.6440   32.8520    8.6970   C 0  0  0  0  0  0  0  0  0  0  0  0
   21.4260   33.4870    6.5130   C 0  0  0  0  0  0  0  0  0  0  0  0
   20.0600   34.0470    6.8090   C 0  0  0  0  0  0  0  0  0  0  0  0
   20.1430   33.5410    8.2560   C 0  0  0  0  0  0  0  0  0  0  0  0
   23.2630   31.9250    9.1010   O 0  0  0  0  0  0  0  0  0  0  0  0
  1  3  1  0  0  0  0
  2  4  2  0  0  0  0
  3  4  1  0  0  0  0
  3  5  1  0  0  0  0
  3  7  1  0  0  0  0
  4  8  1  0  0  0  0
  5  6  1  0  0  0  0
  6  7  1  0  0  0  0
M  END
>  <InstanceId>
1Y1Z_192_A_293

>  <ChemCompId>
192

>  <PdbId>
1Y1Z

>  <ChainId>
A

>  <ResidueNumber>
293

>  <InsertionCode>


>  <Model>
1

>  <AltIds>


>  <MissingHeavyAtoms>
0

>  <ObservedFormula>
C5 N O2

>  <Name>
1-AMINOCYCLOBUTANECARBOXLIC ACID

>  <SystematicName>
1-azanylcyclobutane-1-carboxylic acid

>  <Synonyms>


>  <Type>
PEPTIDE LINKING

>  <Formula>
C5 H9 N O2

>  <MolecularWeight>
115.13

>  <ModifiedDate>
2011-06-16

>  <Parent>


>  <OneLetterCode>


>  <SubcomponentList>


>  <AmbiguousFlag>
N

>  <InChI>
InChI=1S/C5H9NO2/c6-5(4(7)8)2-1-3-5/h1-3,6H2,(H,7,8)

>  <InChIKey>
FVTVMQPGKVHSEY-UHFFFAOYSA-N

>  <SMILES>
C1CC(C1)(C(=O)O)N

$$$$
