1TRD_PGH_B_300
  RCSB PDB08012016023D
Coordinates from PDB:1TRD:B:300 Model:1 without hydrogens
 10  9  0  0  0  0            999 V2000
    5.5290  -23.8010  -16.5380   C 0  0  0  0  0  0  0  0  0  0  0  0
    6.6220  -23.2920  -17.4190   C 0  0  0  0  0  0  0  0  0  0  0  0
    4.3230  -23.2400  -16.9160   N 0  0  0  0  0  0  0  0  0  0  0  0
    3.3800  -23.2260  -16.0600   O 0  0  0  0  0  0  0  0  0  0  0  0
    5.7270  -24.6640  -15.6010   O 0  0  0  0  0  0  0  0  0  0  0  0
    7.9420  -23.3230  -16.8780   O 0  0  0  0  0  0  0  0  0  0  0  0
    9.1450  -22.2780  -18.8980   O 0  0  0  0  0  0  0  0  0  0  0  0
   10.4930  -22.8840  -16.8370   O 0  0  0  0  0  0  0  0  0  0  0  0
    9.5040  -24.7050  -18.2960   O 0  0  0  0  0  0  0  0  0  0  0  0
    9.2890  -23.2910  -17.7190   P 0  0  0  0  0  0  0  0  0  0  0  0
  1  2  1  0  0  0  0
  1  3  1  0  0  0  0
  1  5  2  0  0  0  0
  2  6  1  0  0  0  0
  3  4  1  0  0  0  0
  6 10  1  0  0  0  0
  7 10  2  0  0  0  0
  8 10  1  0  0  0  0
  9 10  1  0  0  0  0
M  END
>  <InstanceId>
1TRD_PGH_B_300

>  <ChemCompId>
PGH

>  <PdbId>
1TRD

>  <ChainId>
B

>  <ResidueNumber>
300

>  <InsertionCode>


>  <Model>
1

>  <AltIds>


>  <MissingHeavyAtoms>
0

>  <ObservedFormula>
C2 N O6 P

>  <Name>
PHOSPHOGLYCOLOHYDROXAMIC ACID

>  <SystematicName>
[2-(hydroxyamino)-2-oxo-ethyl] dihydrogen phosphate

>  <Synonyms>


>  <Type>
NON-POLYMER

>  <Formula>
C2 H6 N O6 P

>  <MolecularWeight>
171.046

>  <ModifiedDate>
2011-06-04

>  <Parent>


>  <OneLetterCode>


>  <SubcomponentList>


>  <AmbiguousFlag>
N

>  <InChI>
InChI=1S/C2H6NO6P/c4-2(3-5)1-9-10(6,7)8/h5H,1H2,(H,3,4)(H2,6,7,8)

>  <InChIKey>
BAXHHWZKQZIJID-UHFFFAOYSA-N

>  <SMILES>
C(C(=O)NO)OP(=O)(O)O

$$$$
