1BDQ_IM1_B_400
  RCSB PDB08012014373D
Coordinates from PDB:1BDQ:B:400 Model:1 without hydrogens
 38 40  0  0  0  0            999 V2000
  -10.6520   15.6080   33.1220   C 0  0  0  0  0  0  0  0  0  0  0  0
  -12.1320   15.3120   32.9150   C 0  0  0  0  0  0  0  0  0  0  0  0
   -9.8390   14.3680   33.4500   C 0  0  0  0  0  0  0  0  0  0  0  0
  -10.5140   16.5010   34.3430   C 0  0  0  0  0  0  0  0  0  0  0  0
  -10.1180   16.2780   32.0270   O 0  0  0  0  0  0  0  0  0  0  0  0
  -10.0810   15.7520   30.7350   C 0  0  0  0  0  0  0  0  0  0  0  0
   -9.1690   14.9890   30.4220   O 0  0  0  0  0  0  0  0  0  0  0  0
  -11.0090   16.1020   29.8520   N 0  0  0  0  0  0  0  0  0  0  0  0
  -11.0340   15.6200   28.4770   C 0  0  0  0  0  0  0  0  0  0  0  0
  -12.4740   15.3050   28.0710   C 0  0  0  0  0  0  0  0  0  0  0  0
  -13.0690   14.1930   28.9300   C 0  0  0  0  0  0  0  0  0  0  0  0
  -14.0650   14.4900   29.8700   C 0  0  0  0  0  0  0  0  0  0  0  0
  -14.5900   13.4580   30.6480   C 0  0  0  0  0  0  0  0  0  0  0  0
  -14.1380   12.1430   30.5000   C 0  0  0  0  0  0  0  0  0  0  0  0
  -13.1560   11.8530   29.5700   C 0  0  0  0  0  0  0  0  0  0  0  0
  -12.6200   12.8700   28.7860   C 0  0  0  0  0  0  0  0  0  0  0  0
  -10.4210   16.7000   27.5410   C 0  0  0  0  0  0  0  0  0  0  0  0
  -11.0130   18.0050   27.7150   O 0  0  0  0  0  0  0  0  0  0  0  0
   -8.9600   16.8980   27.8650   C 0  0  0  0  0  0  0  0  0  0  0  0
   -8.1280   17.6210   26.8790   C 0  0  0  0  0  0  0  0  0  0  0  0
   -6.7630   17.8950   27.5820   C 0  0  0  0  0  0  0  0  0  0  0  0
   -5.5980   18.0140   26.6140   C 0  0  0  0  0  0  0  0  0  0  0  0
   -4.6910   16.9510   26.5000   C 0  0  0  0  0  0  0  0  0  0  0  0
   -3.6960   16.9950   25.5380   C 0  0  0  0  0  0  0  0  0  0  0  0
   -3.6020   18.0940   24.6950   C 0  0  0  0  0  0  0  0  0  0  0  0
   -4.5030   19.1510   24.8050   C 0  0  0  0  0  0  0  0  0  0  0  0
   -5.5060   19.1210   25.7610   C 0  0  0  0  0  0  0  0  0  0  0  0
   -8.0190   16.7770   25.6070   C 0  0  0  0  0  0  0  0  0  0  0  0
   -7.7480   15.5820   25.6600   O 0  0  0  0  0  0  0  0  0  0  0  0
   -8.2020   17.4050   24.4550   N 0  0  0  0  0  0  0  0  0  0  0  0
   -8.1050   16.7030   23.1800   C 0  0  0  0  0  0  0  0  0  0  0  0
   -9.4460   16.6830   22.4220   C 0  0  0  0  0  0  0  0  0  0  0  0
  -10.5120   15.9660   23.2260   C 0  0  0  0  0  0  0  0  0  0  0  0
   -7.0610   17.4910   22.3880   C 0  0  0  0  0  0  0  0  0  0  0  0
   -6.1220   16.8400   21.7460   N 0  0  0  0  0  0  0  0  0  0  0  0
   -5.2960   17.7920   21.1950   C 0  0  0  0  0  0  0  0  0  0  0  0
   -5.8430   19.0150   21.5680   C 0  0  0  0  0  0  0  0  0  0  0  0
   -6.9820   18.8040   22.3280   N 0  0  0  0  0  0  0  0  0  0  0  0
  1  2  1  0  0  0  0
  1  3  1  0  0  0  0
  1  4  1  0  0  0  0
  1  5  1  0  0  0  0
  5  6  1  0  0  0  0
  6  7  2  0  0  0  0
  6  8  1  0  0  0  0
  8  9  1  0  0  0  0
  9 10  1  0  0  0  0
  9 17  1  0  0  0  0
 10 11  1  0  0  0  0
 11 12  2  0  0  0  0
 11 16  1  0  0  0  0
 12 13  1  0  0  0  0
 13 14  2  0  0  0  0
 14 15  1  0  0  0  0
 15 16  2  0  0  0  0
 17 18  1  0  0  0  0
 17 19  1  0  0  0  0
 19 20  1  0  0  0  0
 20 21  1  0  0  0  0
 20 28  1  0  0  0  0
 21 22  1  0  0  0  0
 22 23  2  0  0  0  0
 22 27  1  0  0  0  0
 23 24  1  0  0  0  0
 24 25  2  0  0  0  0
 25 26  1  0  0  0  0
 26 27  2  0  0  0  0
 28 29  2  0  0  0  0
 28 30  1  0  0  0  0
 30 31  1  0  0  0  0
 31 32  1  0  0  0  0
 31 34  1  0  0  0  0
 32 33  1  0  0  0  0
 34 35  1  0  0  0  0
 34 38  2  0  0  0  0
 35 36  1  0  0  0  0
 36 37  2  0  0  0  0
 37 38  1  0  0  0  0
M  END
>  <InstanceId>
1BDQ_IM1_B_400

>  <ChemCompId>
IM1

>  <PdbId>
1BDQ

>  <ChainId>
B

>  <ResidueNumber>
400

>  <InsertionCode>


>  <Model>
1

>  <AltIds>


>  <MissingHeavyAtoms>
1

>  <ObservedFormula>
C30 N4 O4

>  <Name>
(2R,4S,5S,1'S)-2-PHENYLMETHYL-4-HYDROXY-5-(TERT-BUTOXYCARBONYL)AMINO-6-PHENYL HEXANOYL-N-(1'-IMIDAZO-2-YL)-2'-METHYLPROPANAMIDE

>  <SystematicName>
tert-butyl N-[(2S,3S,5R)-3-hydroxy-6-[[(1S)-1-(1H-imidazol-2-yl)-2-methyl-propyl]amino]-6-oxo-1-phenyl-5-(phenylmethyl)hexan-2-yl]carbamate

>  <Synonyms>


>  <Type>
NON-POLYMER

>  <Formula>
C31 H42 N4 O4

>  <MolecularWeight>
534.69

>  <ModifiedDate>
2011-06-04

>  <Parent>


>  <OneLetterCode>


>  <SubcomponentList>


>  <AmbiguousFlag>
N

>  <InChI>
InChI=1S/C31H42N4O4/c1-21(2)27(28-32-16-17-33-28)35-29(37)24(18-22-12-8-6-9-13-22)20-26(36)25(19-23-14-10-7-11-15-23)34-30(38)39-31(3,4)5/h6-17,21,24-27,36H,18-20H2,1-5H3,(H,32,33)(H,34,38)(H,35,37)/t24-,25+,26+,27+/m1/s1

>  <InChIKey>
QAHXABIFJPGWDD-WKAQUBQDSA-N

>  <SMILES>
CC(C)[C@@H](c1[nH]ccn1)NC(=O)[C@H](Cc2ccccc2)C[C@@H]([C@H](Cc3ccccc3)NC(=O)OC(C)(C)C)O

$$$$
