4PEE_2OX_A_504
  RCSB PDB08012022523D
Coordinates from PDB:4PEE:A:504 Model:1 without hydrogens
 19 21  0  0  0  0            999 V2000
   34.4200    9.4790   58.9590   C 0  0  0  0  0  0  0  0  0  0  0  0
   34.9520   10.5960   59.6060   C 0  0  0  0  0  0  0  0  0  0  0  0
   34.1010   11.6240   60.0280   C 0  0  0  0  0  0  0  0  0  0  0  0
   32.7230   11.5300   59.8020   C 0  0  0  0  0  0  0  0  0  0  0  0
   32.1930   10.4040   59.1500   C 0  0  0  0  0  0  0  0  0  0  0  0
   33.0290    9.3510   58.7270   C 0  0  0  0  0  0  0  0  0  0  0  0
   32.5630    8.2640   58.0480   N 0  0  0  0  0  0  0  0  0  0  0  0
   31.4890    8.1310   57.2470   C 0  0  0  0  0  0  0  0  0  0  0  0
   33.1740    7.1490   58.0000   N 0  0  0  0  0  0  0  0  0  0  0  0
   32.6000    6.3060   57.2820   N 0  0  0  0  0  0  0  0  0  0  0  0
   31.5130    6.8730   56.7970   C 0  0  0  0  0  0  0  0  0  0  0  0
   30.5160    6.1500   55.7880   C 0  0  0  0  0  0  0  0  0  0  0  0
   29.0640    6.3120   56.0150   N 0  0  0  0  0  0  0  0  0  0  0  0
   28.4920    4.9440   56.0290   C 0  0  0  0  0  0  0  0  0  0  0  0
   27.0340    4.9470   55.5930   C 0  0  0  0  0  0  0  0  0  0  0  0
   29.4180    4.1960   55.0580   C 0  0  0  0  0  0  0  0  0  0  0  0
   29.1440    4.7360   53.6790   O 0  0  0  0  0  0  0  0  0  0  0  0
   30.7180    4.6210   55.7130   C 0  0  0  0  0  0  0  0  0  0  0  0
   31.9130    4.1510   54.9620   O 0  0  0  0  0  0  0  0  0  0  0  0
 17 16  1  0  0  0  0
 19 18  1  0  0  0  0
 16 18  1  0  0  0  0
 16 14  1  0  0  0  0
 15 14  1  0  0  0  0
 18 12  1  0  0  0  0
 12 13  1  0  0  0  0
 12 11  1  0  0  0  0
 13 14  1  0  0  0  0
 11 10  1  0  0  0  0
 11  8  2  0  0  0  0
 10  9  2  0  0  0  0
  8  7  1  0  0  0  0
  9  7  1  0  0  0  0
  7  6  1  0  0  0  0
  6  1  2  0  0  0  0
  6  5  1  0  0  0  0
  1  2  1  0  0  0  0
  5  4  2  0  0  0  0
  2  3  2  0  0  0  0
  4  3  1  0  0  0  0
M  END
>  <InstanceId>
4PEE_2OX_A_504

>  <ChemCompId>
2OX

>  <PdbId>
4PEE

>  <ChainId>
A

>  <ResidueNumber>
504

>  <InsertionCode>


>  <Model>
1

>  <AltIds>


>  <MissingHeavyAtoms>
0

>  <ObservedFormula>
C13 N4 O2

>  <Name>
(2S,3R,4S,5S)-2-methyl-5-(1-phenyl-1H-1,2,3-triazol-4-yl)pyrrolidine-3,4-diol

>  <SystematicName>
(2S,3R,4S,5S)-2-methyl-5-(1-phenyl-1,2,3-triazol-4-yl)pyrrolidine-3,4-diol

>  <Synonyms>


>  <Type>
NON-POLYMER

>  <Formula>
C13 H16 N4 O2

>  <MolecularWeight>
260.292

>  <ModifiedDate>
2014-07-10

>  <Parent>


>  <OneLetterCode>


>  <SubcomponentList>


>  <AmbiguousFlag>
N

>  <InChI>
InChI=1S/C13H16N4O2/c1-8-12(18)13(19)11(14-8)10-7-17(16-15-10)9-5-3-2-4-6-9/h2-8,11-14,18-19H,1H3/t8-,11-,12+,13-/m0/s1

>  <InChIKey>
HPPFSIKUULBMIZ-KNDHEWATSA-N

>  <SMILES>
C[C@H]1[C@H]([C@H]([C@@H](N1)c2cn(nn2)c3ccccc3)O)O

$$$$
