5TWJ_SAM_C_201
  RCSB PDB08022003083D
Coordinates from PDB:5TWJ:C:201 Model:1 without hydrogens
 27 29  0  0  0  0            999 V2000
   11.8500    0.8280   43.7140   N 0  0  0  0  0  0  0  0  0  0  0  0
   11.1460    0.9920   44.9840   C 0  0  0  0  0  0  0  0  0  0  0  0
   10.7520   -0.3540   45.6050   C 0  0  0  0  0  0  0  0  0  0  0  0
   10.7390   -0.5110   46.8280   O 0  0  0  0  0  0  0  0  0  0  0  0
   10.4420   -1.3230   44.9120   O 0  5  0  0  0  0  0  0  0  0  0  0
    9.9320    1.9200   44.8480   C 0  0  0  0  0  0  0  0  0  0  0  0
   10.2230    3.4000   44.5970   C 0  0  0  0  0  0  0  0  0  0  0  0
    8.7050    4.3830   44.7210   S 0  3  0  0  0  0  0  0  0  0  0  0
    8.7910    5.4680   43.2710   C 0  0  0  0  0  0  0  0  0  0  0  0
    8.9900    5.5480   46.0890   C 0  0  0  0  0  0  0  0  0  0  0  0
    8.3020    5.2070   47.4260   C 0  0  0  0  0  0  0  0  0  0  0  0
    6.8820    5.3390   47.3850   O 0  0  0  0  0  0  0  0  0  0  0  0
    8.5250    3.7800   47.8800   C 0  0  0  0  0  0  0  0  0  0  0  0
    9.7440    3.6330   48.5810   O 0  0  0  0  0  0  0  0  0  0  0  0
    7.3110    3.4890   48.7450   C 0  0  0  0  0  0  0  0  0  0  0  0
    7.4950    3.9910   50.0660   O 0  0  0  0  0  0  0  0  0  0  0  0
    6.2180    4.3320   48.1270   C 0  0  0  0  0  0  0  0  0  0  0  0
    5.3080    3.5310   47.2640   N 0  0  0  0  0  0  0  0  0  0  0  0
    5.2710    3.5090   45.8680   C 0  0  0  0  0  0  0  0  0  0  0  0
    4.3050    2.6510   45.4630   N 0  0  0  0  0  0  0  0  0  0  0  0
    3.7100    2.1290   46.5820   C 0  0  0  0  0  0  0  0  0  0  0  0
    2.6770    1.2180   46.7390   C 0  0  0  0  0  0  0  0  0  0  0  0
    2.0800    0.6990   45.6630   N 0  0  0  0  0  0  0  0  0  0  0  0
    2.2660    0.8530   48.0070   N 0  0  0  0  0  0  0  0  0  0  0  0
    2.8920    1.4020   49.1240   C 0  0  0  0  0  0  0  0  0  0  0  0
    3.9240    2.3090   48.9740   N 0  0  0  0  0  0  0  0  0  0  0  0
    4.3260    2.6660   47.7150   C 0  0  0  0  0  0  0  0  0  0  0  0
  1  2  1  0  0  0  0
  2  3  1  0  0  0  0
  2  6  1  0  0  0  0
  3  4  2  0  0  0  0
  3  5  1  0  0  0  0
  6  7  1  0  0  0  0
  7  8  1  0  0  0  0
  8  9  1  0  0  0  0
  8 10  1  0  0  0  0
 10 11  1  0  0  0  0
 11 12  1  0  0  0  0
 11 13  1  0  0  0  0
 12 17  1  0  0  0  0
 13 14  1  0  0  0  0
 13 15  1  0  0  0  0
 15 16  1  0  0  0  0
 15 17  1  0  0  0  0
 17 18  1  0  0  0  0
 18 19  1  0  0  0  0
 18 27  1  0  0  0  0
 19 20  2  0  0  0  0
 20 21  1  0  0  0  0
 21 22  1  0  0  0  0
 21 27  2  0  0  0  0
 22 23  1  0  0  0  0
 22 24  2  0  0  0  0
 24 25  1  0  0  0  0
 25 26  2  0  0  0  0
 26 27  1  0  0  0  0
M  CHG  2   5  -1   8   1
M  END
>  <InstanceId>
5TWJ_SAM_C_201

>  <ChemCompId>
SAM

>  <PdbId>
5TWJ

>  <ChainId>
C

>  <ResidueNumber>
201

>  <InsertionCode>


>  <Model>
1

>  <AltIds>


>  <MissingHeavyAtoms>
0

>  <ObservedFormula>
C15 N6 O5 S

>  <Name>
S-ADENOSYLMETHIONINE

>  <SystematicName>
(2S)-2-amino-4-[[(2S,3S,4R,5R)-5-(6-aminopurin-9-yl)-3,4-dihydroxy-oxolan-2-yl]methyl-methyl-sulfonio]butanoate

>  <Synonyms>


>  <Type>
NON-POLYMER

>  <Formula>
C15 H22 N6 O5 S

>  <MolecularWeight>
398.437

>  <ModifiedDate>
2011-06-04

>  <Parent>


>  <OneLetterCode>


>  <SubcomponentList>


>  <AmbiguousFlag>
N

>  <InChI>
InChI=1S/C15H22N6O5S/c1-27(3-2-7(16)15(24)25)4-8-10(22)11(23)14(26-8)21-6-20-9-12(17)18-5-19-13(9)21/h5-8,10-11,14,22-23H,2-4,16H2,1H3,(H2-,17,18,19,24,25)/t7-,8+,10+,11+,14+,27-/m0/s1

>  <InChIKey>
MEFKEPWMEQBLKI-FCKMPRQPSA-N

>  <SMILES>
C[S@@+](CC[C@@H](C(=O)[O-])N)C[C@@H]1[C@H]([C@H]([C@@H](O1)n2cnc3c2ncnc3N)O)O

$$$$
