1MES_DMP_B_323
  RCSB PDB08012015273D
Coordinates from PDB:1MES:B:323 Model:1 without hydrogens
 42 46  0  0  0  0            999 V2000
   -8.8690   15.3780   27.9640   C 0  0  0  0  0  0  0  0  0  0  0  0
   -8.8150   17.6720   26.9600   C 0  0  0  0  0  0  0  0  0  0  0  0
  -10.1990   18.2480   27.1790   C 0  0  0  0  0  0  0  0  0  0  0  0
  -10.6690   18.0060   28.5980   C 0  0  0  0  0  0  0  0  0  0  0  0
  -10.9090   16.5410   28.8850   C 0  0  0  0  0  0  0  0  0  0  0  0
   -8.0110   15.6060   25.7700   C 0  0  0  0  0  0  0  0  0  0  0  0
   -8.4740   16.0510   24.4250   C 0  0  0  0  0  0  0  0  0  0  0  0
   -9.8360   16.2820   24.1300   C 0  0  0  0  0  0  0  0  0  0  0  0
  -10.2050   16.6360   22.8130   C 0  0  0  0  0  0  0  0  0  0  0  0
   -9.2050   16.7570   21.8170   C 0  0  0  0  0  0  0  0  0  0  0  0
   -7.8480   16.5230   22.1380   C 0  0  0  0  0  0  0  0  0  0  0  0
   -7.4760   16.1780   23.4460   C 0  0  0  0  0  0  0  0  0  0  0  0
   -9.5860   17.1040   20.3970   C 0  0  0  0  0  0  0  0  0  0  0  0
   -7.7040   18.2790   27.8410   C 0  0  0  0  0  0  0  0  0  0  0  0
   -6.3320   18.1200   27.2130   C 0  0  0  0  0  0  0  0  0  0  0  0
   -5.3460   17.3470   27.8630   C 0  0  0  0  0  0  0  0  0  0  0  0
   -4.0940   17.1680   27.2500   C 0  0  0  0  0  0  0  0  0  0  0  0
   -3.8330   17.7550   25.9940   C 0  0  0  0  0  0  0  0  0  0  0  0
   -4.8120   18.5290   25.3420   C 0  0  0  0  0  0  0  0  0  0  0  0
   -6.0630   18.7170   25.9540   C 0  0  0  0  0  0  0  0  0  0  0  0
  -12.0110   15.8760   28.0250   C 0  0  0  0  0  0  0  0  0  0  0  0
  -12.5700   14.6220   28.6600   C 0  0  0  0  0  0  0  0  0  0  0  0
  -12.2080   13.3540   28.1470   C 0  0  0  0  0  0  0  0  0  0  0  0
  -12.6840   12.1840   28.7780   C 0  0  0  0  0  0  0  0  0  0  0  0
  -13.5110   12.2900   29.9170   C 0  0  0  0  0  0  0  0  0  0  0  0
  -13.8760   13.5600   30.4250   C 0  0  0  0  0  0  0  0  0  0  0  0
  -13.4090   14.7330   29.7980   C 0  0  0  0  0  0  0  0  0  0  0  0
   -9.6290   14.7530   30.1140   C 0  0  0  0  0  0  0  0  0  0  0  0
   -9.7200   15.3630   31.4700   C 0  0  0  0  0  0  0  0  0  0  0  0
  -10.3660   14.5760   32.4350   C 0  0  0  0  0  0  0  0  0  0  0  0
  -10.4170   15.0250   33.7550   C 0  0  0  0  0  0  0  0  0  0  0  0
   -9.8390   16.2670   34.1110   C 0  0  0  0  0  0  0  0  0  0  0  0
   -9.1970   17.0610   33.1310   C 0  0  0  0  0  0  0  0  0  0  0  0
   -9.1430   16.6120   31.7980   C 0  0  0  0  0  0  0  0  0  0  0  0
   -9.8900   16.7290   35.5450   C 0  0  0  0  0  0  0  0  0  0  0  0
   -8.6580   16.2070   26.9250   N 0  0  0  0  0  0  0  0  0  0  0  0
   -9.7360   15.6380   28.9630   N 0  0  0  0  0  0  0  0  0  0  0  0
   -8.2480   14.3240   27.9980   O 0  0  0  0  0  0  0  0  0  0  0  0
  -10.0730   19.6260   26.9030   O 0  0  0  0  0  0  0  0  0  0  0  0
  -11.8890   18.6590   28.8310   O 0  0  0  0  0  0  0  0  0  0  0  0
   -8.7340   18.1270   19.8620   O 0  0  0  0  0  0  0  0  0  0  0  0
  -11.1950   16.5170   36.1030   O 0  0  0  0  0  0  0  0  0  0  0  0
  1 36  1  0  0  0  0
  1 37  1  0  0  0  0
  1 38  2  0  0  0  0
  2  3  1  0  0  0  0
  2 14  1  0  0  0  0
  2 36  1  0  0  0  0
  3  4  1  0  0  0  0
  3 39  1  0  0  0  0
  4  5  1  0  0  0  0
  4 40  1  0  0  0  0
  5 21  1  0  0  0  0
  5 37  1  0  0  0  0
  6  7  1  0  0  0  0
  6 36  1  0  0  0  0
  7  8  2  0  0  0  0
  7 12  1  0  0  0  0
  8  9  1  0  0  0  0
  9 10  2  0  0  0  0
 10 11  1  0  0  0  0
 10 13  1  0  0  0  0
 11 12  2  0  0  0  0
 13 41  1  0  0  0  0
 14 15  1  0  0  0  0
 15 16  2  0  0  0  0
 15 20  1  0  0  0  0
 16 17  1  0  0  0  0
 17 18  2  0  0  0  0
 18 19  1  0  0  0  0
 19 20  2  0  0  0  0
 21 22  1  0  0  0  0
 22 23  2  0  0  0  0
 22 27  1  0  0  0  0
 23 24  1  0  0  0  0
 24 25  2  0  0  0  0
 25 26  1  0  0  0  0
 26 27  2  0  0  0  0
 28 29  1  0  0  0  0
 28 37  1  0  0  0  0
 29 30  2  0  0  0  0
 29 34  1  0  0  0  0
 30 31  1  0  0  0  0
 31 32  2  0  0  0  0
 32 33  1  0  0  0  0
 32 35  1  0  0  0  0
 33 34  2  0  0  0  0
 35 42  1  0  0  0  0
M  END
>  <InstanceId>
1MES_DMP_B_323

>  <ChemCompId>
DMP

>  <PdbId>
1MES

>  <ChainId>
B

>  <ResidueNumber>
323

>  <InsertionCode>


>  <Model>
1

>  <AltIds>


>  <MissingHeavyAtoms>
0

>  <ObservedFormula>
C35 N2 O5

>  <Name>
[4-R-(-4-ALPHA,5-ALPHA,6-BETA,7-BETA)]-HEXAHYDRO-5,6-BIS(HYDROXY)-[1,3-BIS([4-HYDROXYMETHYL-PHENYL]METHYL)-4,7-BIS(PHEN YLMETHYL)]-2H-1,3-DIAZEPINONE

>  <SystematicName>
(4R,5S,6S,7R)-5,6-dihydroxy-1,3-bis[[4-(hydroxymethyl)phenyl]methyl]-4,7-bis(phenylmethyl)-1,3-diazepan-2-one

>  <Synonyms>
DMP323(INHIBITOR OF DUPONT MERCK)

>  <Type>
NON-POLYMER

>  <Formula>
C35 H38 N2 O5

>  <MolecularWeight>
566.687

>  <ModifiedDate>
2020-06-17

>  <Parent>


>  <OneLetterCode>


>  <SubcomponentList>


>  <AmbiguousFlag>
N

>  <InChI>
InChI=1S/C35H38N2O5/c38-23-29-15-11-27(12-16-29)21-36-31(19-25-7-3-1-4-8-25)33(40)34(41)32(20-26-9-5-2-6-10-26)37(35(36)42)22-28-13-17-30(24-39)18-14-28/h1-18,31-34,38-41H,19-24H2/t31-,32-,33+,34+/m1/s1

>  <InChIKey>
XCVGQMUMMDXKCY-WZJLIZBTSA-N

>  <SMILES>
c1ccc(cc1)C[C@@H]2[C@@H]([C@H]([C@H](N(C(=O)N2Cc3ccc(cc3)CO)Cc4ccc(cc4)CO)Cc5ccccc5)O)O

$$$$
