6DJ2_AB1_B_201
  RCSB PDB08022004233D
Coordinates from PDB:6DJ2:B:201 Model:1 without hydrogens
 46 49  0  0  0  0            999 V2000
    5.0070   16.5070   64.2720   C 0  0  0  0  0  0  0  0  0  0  0  0
    6.7890   17.9290   63.2850   C 0  0  0  0  0  0  0  0  0  0  0  0
    7.7980   16.9030   63.6600   N 0  0  0  0  0  0  0  0  0  0  0  0
    7.4400   15.8620   64.4070   C 0  0  0  0  0  0  0  0  0  0  0  0
    6.1280   15.6720   64.7750   N 0  0  0  0  0  0  0  0  0  0  0  0
   14.7760   20.4710   61.8760   C 0  0  0  0  0  0  0  0  0  0  0  0
   16.0600   20.9530   61.7480   C 0  0  0  0  0  0  0  0  0  0  0  0
   16.4530   21.9840   60.9270   C 0  0  0  0  0  0  0  0  0  0  0  0
   15.4420   22.6050   60.1510   C 0  0  0  0  0  0  0  0  0  0  0  0
   14.1720   22.1090   60.1890   C 0  0  0  0  0  0  0  0  0  0  0  0
   13.8270   21.0660   61.0440   C 0  0  0  0  0  0  0  0  0  0  0  0
    8.3080   15.0440   64.7660   O 0  0  0  0  0  0  0  0  0  0  0  0
    9.1990   17.1040   63.1990   C 0  0  0  0  0  0  0  0  0  0  0  0
    9.7260   18.3290   63.9330   C 0  0  0  0  0  0  0  0  0  0  0  0
   10.4880   18.0610   64.9880   N 0  0  0  0  0  0  0  0  0  0  0  0
   11.0520   19.1250   65.8400   C 0  0  0  0  0  0  0  0  0  0  0  0
    9.2680   17.2040   61.6820   C 0  0  0  0  0  0  0  0  0  0  0  0
   10.7410   17.4150   61.3090   C 0  0  0  0  0  0  0  0  0  0  0  0
    8.7950   15.8930   61.0560   C 0  0  0  0  0  0  0  0  0  0  0  0
    9.4480   19.4520   63.4950   O 0  0  0  0  0  0  0  0  0  0  0  0
    7.1070   20.9870   67.0950   C 0  0  0  0  0  0  0  0  0  0  0  0
    6.1430   19.9930   67.1130   C 0  0  0  0  0  0  0  0  0  0  0  0
    6.5790   18.6610   67.1410   C 0  0  0  0  0  0  0  0  0  0  0  0
    7.9560   18.3990   67.1870   C 0  0  0  0  0  0  0  0  0  0  0  0
    8.9120   19.3990   67.0770   C 0  0  0  0  0  0  0  0  0  0  0  0
    8.4490   20.7290   67.0910   C 0  0  0  0  0  0  0  0  0  0  0  0
   10.2790   19.1680   67.1530   C 0  0  0  0  0  0  0  0  0  0  0  0
   12.5340   18.8550   66.1000   C 0  0  0  0  0  0  0  0  0  0  0  0
   13.3780   18.5920   64.8700   C 0  0  0  0  0  0  0  0  0  0  0  0
   13.6670   19.7930   63.9710   C 0  0  0  0  0  0  0  0  0  0  0  0
   14.4030   20.8620   64.6780   N 0  0  0  0  0  0  0  0  0  0  0  0
   13.8120   22.0570   64.9090   C 0  0  0  0  0  0  0  0  0  0  0  0
   14.6960   23.1550   65.4950   C 0  0  0  0  0  0  0  0  0  0  0  0
   15.9360   22.5600   65.9540   O 0  0  0  0  0  0  0  0  0  0  0  0
   16.7980   23.5450   66.3080   C 0  0  0  0  0  0  0  0  0  0  0  0
   14.6300   18.0420   65.2890   O 0  0  0  0  0  0  0  0  0  0  0  0
   14.4910   19.4120   62.7560   C 0  0  0  0  0  0  0  0  0  0  0  0
   12.6170   22.3150   64.6770   O 0  0  0  0  0  0  0  0  0  0  0  0
   16.6740   24.0960   67.5720   C 0  0  0  0  0  0  0  0  0  0  0  0
   17.5950   25.0810   67.9000   C 0  0  0  0  0  0  0  0  0  0  0  0
   18.5530   25.5340   67.0120   C 0  0  0  0  0  0  0  0  0  0  0  0
   18.6640   24.9600   65.7370   C 0  0  0  0  0  0  0  0  0  0  0  0
   17.7680   23.9270   65.3920   C 0  0  0  0  0  0  0  0  0  0  0  0
   17.8310   23.3970   64.1070   C 0  0  0  0  0  0  0  0  0  0  0  0
   15.7640   23.6570   68.5740   C 0  0  0  0  0  0  0  0  0  0  0  0
    5.4370   17.2800   63.0350   C 0  0  0  0  0  0  0  0  0  0  0  0
  1  5  1  0  0  0  0
  1 46  1  0  0  0  0
  2  3  1  0  0  0  0
  2 46  1  0  0  0  0
  3  4  1  0  0  0  0
  3 13  1  0  0  0  0
  4  5  1  0  0  0  0
  4 12  2  0  0  0  0
  6  7  2  0  0  0  0
  6 11  1  0  0  0  0
  6 37  1  0  0  0  0
  7  8  1  0  0  0  0
  8  9  2  0  0  0  0
  9 10  1  0  0  0  0
 10 11  2  0  0  0  0
 13 14  1  0  0  0  0
 13 17  1  0  0  0  0
 14 15  1  0  0  0  0
 14 20  2  0  0  0  0
 15 16  1  0  0  0  0
 16 27  1  0  0  0  0
 16 28  1  0  0  0  0
 17 18  1  0  0  0  0
 17 19  1  0  0  0  0
 21 22  2  0  0  0  0
 21 26  1  0  0  0  0
 22 23  1  0  0  0  0
 23 24  2  0  0  0  0
 24 25  1  0  0  0  0
 25 26  2  0  0  0  0
 25 27  1  0  0  0  0
 28 29  1  0  0  0  0
 29 30  1  0  0  0  0
 29 36  1  0  0  0  0
 30 31  1  0  0  0  0
 30 37  1  0  0  0  0
 31 32  1  0  0  0  0
 32 33  1  0  0  0  0
 32 38  2  0  0  0  0
 33 34  1  0  0  0  0
 34 35  1  0  0  0  0
 35 39  2  0  0  0  0
 35 43  1  0  0  0  0
 39 40  1  0  0  0  0
 39 45  1  0  0  0  0
 40 41  2  0  0  0  0
 41 42  1  0  0  0  0
 42 43  2  0  0  0  0
 43 44  1  0  0  0  0
M  END
>  <InstanceId>
6DJ2_AB1_B_201

>  <ChemCompId>
AB1

>  <PdbId>
6DJ2

>  <ChainId>
B

>  <ResidueNumber>
201

>  <InsertionCode>


>  <Model>
1

>  <AltIds>


>  <MissingHeavyAtoms>
0

>  <ObservedFormula>
C37 N4 O5

>  <Name>
N-{1-BENZYL-4-[2-(2,6-DIMETHYL-PHENOXY)-ACETYLAMINO]-3-HYDROXY-5-PHENYL-PENTYL}-3-METHYL-2-(2-OXO-TETRAHYDRO-PYRIMIDIN-1-YL)-BUTYRAMIDE

>  <SystematicName>
(2S)-N-[(2S,4S,5S)-5-[2-(2,6-dimethylphenoxy)ethanoylamino]-4-hydroxy-1,6-diphenyl-hexan-2-yl]-3-methyl-2-(2-oxo-1,3-diazinan-1-yl)butanamide

>  <Synonyms>
ABT-378; LOPINAVIR

>  <Type>
NON-POLYMER

>  <Formula>
C37 H48 N4 O5

>  <MolecularWeight>
628.801

>  <ModifiedDate>
2020-05-26

>  <Parent>


>  <OneLetterCode>


>  <SubcomponentList>


>  <AmbiguousFlag>
N

>  <InChI>
InChI=1S/C37H48N4O5/c1-25(2)34(41-20-12-19-38-37(41)45)36(44)39-30(21-28-15-7-5-8-16-28)23-32(42)31(22-29-17-9-6-10-18-29)40-33(43)24-46-35-26(3)13-11-14-27(35)4/h5-11,13-18,25,30-32,34,42H,12,19-24H2,1-4H3,(H,38,45)(H,39,44)(H,40,43)/t30-,31-,32-,34-/m0/s1

>  <InChIKey>
KJHKTHWMRKYKJE-SUGCFTRWSA-N

>  <SMILES>
Cc1cccc(c1OCC(=O)N[C@@H](Cc2ccccc2)[C@H](C[C@H](Cc3ccccc3)NC(=O)[C@H](C(C)C)N4CCCNC4=O)O)C

$$$$
