5G2G_EQU_A_1129
  RCSB PDB08022001273D
Coordinates from PDB:5G2G:A:1129 Model:1 without hydrogens
 20 23  0  0  0  0            999 V2000
    2.9620  -14.1560  -12.4350   C 0  0  0  0  0  0  0  0  0  0  0  0
    3.1330  -13.0260  -13.2410   C 0  0  0  0  0  0  0  0  0  0  0  0
    2.4500  -11.8480  -12.9430   C 0  0  0  0  0  0  0  0  0  0  0  0
    1.5730  -11.7690  -11.8240   C 0  0  0  0  0  0  0  0  0  0  0  0
    1.4060  -12.8990  -11.0150   C 0  0  0  0  0  0  0  0  0  0  0  0
    2.0820  -14.1010  -11.3180   C 0  0  0  0  0  0  0  0  0  0  0  0
    2.6280  -10.6270  -13.7820   C 0  0  0  0  0  0  0  0  0  0  0  0
    1.9180   -9.4040  -13.4710   C 0  0  0  0  0  0  0  0  0  0  0  0
    1.0490   -9.2800  -12.3750   C 0  0  0  0  0  0  0  0  0  0  0  0
    0.8770  -10.5910  -11.5220   C 0  0  0  0  0  0  0  0  0  0  0  0
    0.5580   -8.4740  -12.0810   C 0  0  0  0  0  0  0  0  0  0  0  0
    0.3050   -8.2600  -10.8270   C 0  0  0  0  0  0  0  0  0  0  0  0
   -0.5680   -9.3450  -10.2390   C 0  0  0  0  0  0  0  0  0  0  0  0
   -0.0490  -10.4470  -10.3540   C 0  0  0  0  0  0  0  0  0  0  0  0
    0.9580   -7.1800  -12.5140   C 0  0  0  0  0  0  0  0  0  0  0  0
    0.2950   -6.1590  -11.6750   C 0  0  0  0  0  0  0  0  0  0  0  0
   -0.2730   -6.8090  -10.7530   C 0  0  0  0  0  0  0  0  0  0  0  0
    1.5510   -8.1320   -9.9170   C 0  0  0  0  0  0  0  0  0  0  0  0
    3.6650  -15.3330  -12.7040   O 0  0  0  0  0  0  0  0  0  0  0  0
   -1.0810   -6.4010   -9.9860   O 0  0  0  0  0  0  0  0  0  0  0  0
  1  2  2  0  0  0  0
  1  6  1  0  0  0  0
  1 19  1  0  0  0  0
  2  3  1  0  0  0  0
  3  4  2  0  0  0  0
  3  7  1  0  0  0  0
  4  5  1  0  0  0  0
  4 10  1  0  0  0  0
  5  6  2  0  0  0  0
  7  8  2  0  0  0  0
  8  9  1  0  0  0  0
  9 10  2  0  0  0  0
  9 11  1  0  0  0  0
 10 14  1  0  0  0  0
 11 12  1  0  0  0  0
 11 15  1  0  0  0  0
 12 13  1  0  0  0  0
 12 17  1  0  0  0  0
 12 18  1  0  0  0  0
 13 14  1  0  0  0  0
 15 16  1  0  0  0  0
 16 17  1  0  0  0  0
 17 20  2  0  0  0  0
M  END
>  <InstanceId>
5G2G_EQU_A_1129

>  <ChemCompId>
EQU

>  <PdbId>
5G2G

>  <ChainId>
A

>  <ResidueNumber>
1129

>  <InsertionCode>


>  <Model>
1

>  <AltIds>


>  <MissingHeavyAtoms>
0

>  <ObservedFormula>
C18 O2

>  <Name>
EQUILENIN

>  <SystematicName>
(13S,14S)-3-hydroxy-13-methyl-12,14,15,16-tetrahydro-11H-cyclopenta[a]phenanthren-17-one

>  <Synonyms>


>  <Type>
NON-POLYMER

>  <Formula>
C18 H18 O2

>  <MolecularWeight>
266.334

>  <ModifiedDate>
2011-06-04

>  <Parent>


>  <OneLetterCode>


>  <SubcomponentList>


>  <AmbiguousFlag>
N

>  <InChI>
InChI=1S/C18H18O2/c1-18-9-8-14-13-5-3-12(19)10-11(13)2-4-15(14)16(18)6-7-17(18)20/h2-5,10,16,19H,6-9H2,1H3/t16-,18-/m0/s1

>  <InChIKey>
PDRGHUMCVRDZLQ-WMZOPIPTSA-N

>  <SMILES>
C[C@]12CCc3c4ccc(cc4ccc3[C@@H]1CCC2=O)O

$$$$
