5EXW_7DT_A_501
  RCSB PDB08022001173D
Coordinates from PDB:5EXW:A:501 Model:1 without hydrogens
 31 33  0  0  0  0            999 V2000
   20.6520    0.8170    5.4020   O 0  0  0  0  0  0  0  0  0  0  0  0
   19.8900    1.4500    4.2290   P 0  0  0  0  0  0  0  0  0  0  0  0
   20.7870    2.3310    3.4190   O 0  0  0  0  0  0  0  0  0  0  0  0
   18.5480    2.0140    4.5390   O 0  0  0  0  0  0  0  0  0  0  0  0
   19.5560    0.2140    3.2440   O 0  0  0  0  0  0  0  0  0  0  0  0
   20.5720   -0.6220    2.4280   P 0  0  0  0  0  0  0  0  0  0  0  0
   20.4070   -0.5190    0.9250   O 0  0  0  0  0  0  0  0  0  0  0  0
   21.9930   -0.4680    2.9970   O 0  0  0  0  0  0  0  0  0  0  0  0
   20.1360   -2.1150    2.8620   O 0  0  0  0  0  0  0  0  0  0  0  0
   19.0950   -3.1360    2.2540   P 0  0  0  0  0  0  0  0  0  0  0  0
   19.8410   -4.2800    1.6350   O 0  0  0  0  0  0  0  0  0  0  0  0
   18.1020   -2.4740    1.3640   O 0  0  0  0  0  0  0  0  0  0  0  0
   18.3460   -3.6470    3.5360   O 0  0  0  0  0  0  0  0  0  0  0  0
   19.0190   -4.3750    4.5950   C 0  0  0  0  0  0  0  0  0  0  0  0
   18.0180   -4.8160    5.6360   C 0  0  0  0  0  0  0  0  0  0  0  0
   17.1570   -5.7320    4.9520   O 0  0  0  0  0  0  0  0  0  0  0  0
   16.9750   -6.8470    5.7940   C 0  0  0  0  0  0  0  0  0  0  0  0
   16.5220   -8.0460    5.0620   N 0  0  0  0  0  0  0  0  0  0  0  0
   17.1560   -8.6140    4.0070   C 0  0  0  0  0  0  0  0  0  0  0  0
   16.4500   -9.7270    3.6060   C 0  0  0  0  0  0  0  0  0  0  0  0
   15.3430   -9.8460    4.3970   C 0  0  0  0  0  0  0  0  0  0  0  0
   14.2360  -10.7560    4.5020   C 0  0  0  0  0  0  0  0  0  0  0  0
   14.1620  -11.8120    3.6280   N 0  0  0  0  0  0  0  0  0  0  0  0
   13.3470  -10.5410    5.4300   N 0  0  0  0  0  0  0  0  0  0  0  0
   13.4690   -9.4750    6.2620   C 0  0  0  0  0  0  0  0  0  0  0  0
   14.4600   -8.5690    6.2510   N 0  0  0  0  0  0  0  0  0  0  0  0
   15.3890   -8.7760    5.3190   C 0  0  0  0  0  0  0  0  0  0  0  0
   18.3690   -7.0840    6.4110   C 0  0  0  0  0  0  0  0  0  0  0  0
   18.3280   -7.8210    7.6150   O 0  0  0  0  0  0  0  0  0  0  0  0
   18.7340   -5.6100    6.7420   C 0  0  0  0  0  0  0  0  0  0  0  0
   18.1780   -5.2220    7.9670   O 0  0  0  0  0  0  0  0  0  0  0  0
  7  6  2  0  0  0  0
 12 10  2  0  0  0  0
 11 10  1  0  0  0  0
 10  9  1  0  0  0  0
 10 13  1  0  0  0  0
  6  9  1  0  0  0  0
  6  8  1  0  0  0  0
  6  5  1  0  0  0  0
  5  2  1  0  0  0  0
  3  2  2  0  0  0  0
 13 14  1  0  0  0  0
 20 19  2  0  0  0  0
 20 21  1  0  0  0  0
 23 22  1  0  0  0  0
 19 18  1  0  0  0  0
  2  4  1  0  0  0  0
  2  1  1  0  0  0  0
 21 22  2  0  0  0  0
 21 27  1  0  0  0  0
 22 24  1  0  0  0  0
 14 15  1  0  0  0  0
 16 15  1  0  0  0  0
 16 17  1  0  0  0  0
 18 27  1  0  0  0  0
 18 17  1  0  0  0  0
 27 26  2  0  0  0  0
 24 25  2  0  0  0  0
 15 30  1  0  0  0  0
 17 28  1  0  0  0  0
 26 25  1  0  0  0  0
 28 30  1  0  0  0  0
 28 29  1  0  0  0  0
 30 31  1  0  0  0  0
M  END
>  <InstanceId>
5EXW_7DT_A_501

>  <ChemCompId>
7DT

>  <PdbId>
5EXW

>  <ChainId>
A

>  <ResidueNumber>
501

>  <InsertionCode>


>  <Model>
1

>  <AltIds>


>  <MissingHeavyAtoms>
0

>  <ObservedFormula>
C11 N4 O13 P3

>  <Name>
7-deazaadenosine-5'-triphosphate

>  <SystematicName>
[[(2~{R},3~{S},4~{R},5~{R})-5-(4-azanylpyrrolo[2,3-d]pyrimidin-7-yl)-3,4-bis(oxidanyl)oxolan-2-yl]methoxy-oxidanyl-phosphoryl] phosphono hydrogen phosphate

>  <Synonyms>


>  <Type>
NON-POLYMER

>  <Formula>
C11 H17 N4 O13 P3

>  <MolecularWeight>
506.193

>  <ModifiedDate>
2016-06-10

>  <Parent>


>  <OneLetterCode>


>  <SubcomponentList>


>  <AmbiguousFlag>
N

>  <InChI>
InChI=1S/C11H17N4O13P3/c12-9-5-1-2-15(10(5)14-4-13-9)11-8(17)7(16)6(26-11)3-25-30(21,22)28-31(23,24)27-29(18,19)20/h1-2,4,6-8,11,16-17H,3H2,(H,21,22)(H,23,24)(H2,12,13,14)(H2,18,19,20)/t6-,7-,8-,11-/m1/s1

>  <InChIKey>
GVVRDIINMFAFEO-KCGFPETGSA-N

>  <SMILES>
c1cn(c2c1c(ncn2)N)[C@H]3[C@@H]([C@@H]([C@H](O3)COP(=O)(O)OP(=O)(O)OP(=O)(O)O)O)O

$$$$
