2W5G_ATP_A_1125
  RCSB PDB08012018063D
Coordinates from PDB:2W5G:A:1125 Model:1 without hydrogens
 31 33  0  0  0  0            999 V2000
   37.4210   -2.8850   22.9320   P 0  0  0  0  0  0  0  0  0  0  0  0
   38.0700   -1.5240   23.0400   O 0  0  0  0  0  0  0  0  0  0  0  0
   37.7740   -3.6740   21.6910   O 0  0  0  0  0  0  0  0  0  0  0  0
   35.9250   -2.8360   23.0740   O 0  0  0  0  0  0  0  0  0  0  0  0
   39.7030   -4.1740   24.0130   P 0  0  0  0  0  0  0  0  0  0  0  0
   40.1130   -4.7190   25.3530   O 0  0  0  0  0  0  0  0  0  0  0  0
   39.9120   -5.0210   22.7740   O 0  0  0  0  0  0  0  0  0  0  0  0
   38.1300   -3.7590   24.0800   O 0  0  0  0  0  0  0  0  0  0  0  0
   41.7360   -2.5750   22.7930   P 0  0  0  0  0  0  0  0  0  0  0  0
   42.6040   -1.4480   23.2890   O 0  0  0  0  0  0  0  0  0  0  0  0
   42.3900   -3.9030   22.4850   O 0  0  0  0  0  0  0  0  0  0  0  0
   40.5120   -2.7850   23.8390   O 0  0  0  0  0  0  0  0  0  0  0  0
   40.9420   -2.0460   21.4860   O 0  0  0  0  0  0  0  0  0  0  0  0
   41.3420   -2.3830   20.1620   C 0  0  0  0  0  0  0  0  0  0  0  0
   40.6350   -3.6700   19.7670   C 0  0  0  0  0  0  0  0  0  0  0  0
   39.4770   -3.4110   18.9720   O 0  0  0  0  0  0  0  0  0  0  0  0
   41.5420   -4.5600   18.9440   C 0  0  0  0  0  0  0  0  0  0  0  0
   41.4770   -5.8580   19.5380   O 0  0  0  0  0  0  0  0  0  0  0  0
   40.9150   -4.5720   17.5620   C 0  0  0  0  0  0  0  0  0  0  0  0
   41.1310   -5.8150   16.8730   O 0  0  0  0  0  0  0  0  0  0  0  0
   39.4370   -4.2910   17.8490   C 0  0  0  0  0  0  0  0  0  0  0  0
   38.7580   -3.6360   16.6930   N 0  0  0  0  0  0  0  0  0  0  0  0
   38.9490   -2.3520   16.3140   C 0  0  0  0  0  0  0  0  0  0  0  0
   38.1950   -2.0240   15.2510   N 0  0  0  0  0  0  0  0  0  0  0  0
   37.4930   -3.1370   14.9440   C 0  0  0  0  0  0  0  0  0  0  0  0
   36.5190   -3.4920   13.9330   C 0  0  0  0  0  0  0  0  0  0  0  0
   36.1830   -2.5580   13.0190   N 0  0  0  0  0  0  0  0  0  0  0  0
   36.0040   -4.7730   13.9580   N 0  0  0  0  0  0  0  0  0  0  0  0
   36.3760   -5.6940   14.8650   C 0  0  0  0  0  0  0  0  0  0  0  0
   37.2780   -5.4330   15.8320   N 0  0  0  0  0  0  0  0  0  0  0  0
   37.8620   -4.1950   15.8970   C 0  0  0  0  0  0  0  0  0  0  0  0
  1  2  2  0  0  0  0
  1  3  1  0  0  0  0
  1  4  1  0  0  0  0
  1  8  1  0  0  0  0
  5  6  2  0  0  0  0
  5  7  1  0  0  0  0
  5  8  1  0  0  0  0
  5 12  1  0  0  0  0
  9 10  2  0  0  0  0
  9 11  1  0  0  0  0
  9 12  1  0  0  0  0
  9 13  1  0  0  0  0
 13 14  1  0  0  0  0
 14 15  1  0  0  0  0
 15 16  1  0  0  0  0
 15 17  1  0  0  0  0
 16 21  1  0  0  0  0
 17 18  1  0  0  0  0
 17 19  1  0  0  0  0
 19 20  1  0  0  0  0
 19 21  1  0  0  0  0
 21 22  1  0  0  0  0
 22 23  1  0  0  0  0
 22 31  1  0  0  0  0
 23 24  2  0  0  0  0
 24 25  1  0  0  0  0
 25 26  1  0  0  0  0
 25 31  2  0  0  0  0
 26 27  1  0  0  0  0
 26 28  2  0  0  0  0
 28 29  1  0  0  0  0
 29 30  2  0  0  0  0
 30 31  1  0  0  0  0
M  END
>  <InstanceId>
2W5G_ATP_A_1125

>  <ChemCompId>
ATP

>  <PdbId>
2W5G

>  <ChainId>
A

>  <ResidueNumber>
1125

>  <InsertionCode>


>  <Model>
1

>  <AltIds>


>  <MissingHeavyAtoms>
0

>  <ObservedFormula>
C10 N5 O13 P3

>  <Name>
ADENOSINE-5'-TRIPHOSPHATE

>  <SystematicName>
[[(2R,3S,4R,5R)-5-(6-aminopurin-9-yl)-3,4-dihydroxy-oxolan-2-yl]methoxy-hydroxy-phosphoryl] phosphono hydrogen phosphate

>  <Synonyms>


>  <Type>
NON-POLYMER

>  <Formula>
C10 H16 N5 O13 P3

>  <MolecularWeight>
507.181

>  <ModifiedDate>
2011-06-04

>  <Parent>


>  <OneLetterCode>


>  <SubcomponentList>


>  <AmbiguousFlag>
N

>  <InChI>
InChI=1S/C10H16N5O13P3/c11-8-5-9(13-2-12-8)15(3-14-5)10-7(17)6(16)4(26-10)1-25-30(21,22)28-31(23,24)27-29(18,19)20/h2-4,6-7,10,16-17H,1H2,(H,21,22)(H,23,24)(H2,11,12,13)(H2,18,19,20)/t4-,6-,7-,10-/m1/s1

>  <InChIKey>
ZKHQWZAMYRWXGA-KQYNXXCUSA-N

>  <SMILES>
c1nc(c2c(n1)n(cn2)[C@H]3[C@@H]([C@@H]([C@H](O3)CO[P@@](=O)(O)O[P@](=O)(O)OP(=O)(O)O)O)O)N

$$$$
