4E3G_PHB_A_303
  RCSB PDB08012021343D
Coordinates from PDB:4E3G:A:303 Model:1 without hydrogens
 10 10  0  0  0  0            999 V2000
   16.4400    2.1870   15.2350   C 0  0  0  0  0  0  0  0  0  0  0  0
   15.2530    1.8470   15.5410   O 0  0  0  0  0  0  0  0  0  0  0  0
   17.3410    1.4040   15.6300   O 0  0  0  0  0  0  0  0  0  0  0  0
   16.7060    3.4620   14.6760   C 0  0  0  0  0  0  0  0  0  0  0  0
   18.0480    3.9210   14.6600   C 0  0  0  0  0  0  0  0  0  0  0  0
   18.4420    5.2100   14.1920   C 0  0  0  0  0  0  0  0  0  0  0  0
   17.3440    5.9500   13.6530   C 0  0  0  0  0  0  0  0  0  0  0  0
   16.0150    5.4960   13.6580   C 0  0  0  0  0  0  0  0  0  0  0  0
   15.6810    4.2780   14.2290   C 0  0  0  0  0  0  0  0  0  0  0  0
   17.5460    7.2150   13.0840   O 0  0  0  0  0  0  0  0  0  0  0  0
  1  2  2  0  0  0  0
  1  3  1  0  0  0  0
  1  4  1  0  0  0  0
  4  5  1  0  0  0  0
  4  9  2  0  0  0  0
  5  6  2  0  0  0  0
  6  7  1  0  0  0  0
  7  8  2  0  0  0  0
  7 10  1  0  0  0  0
  8  9  1  0  0  0  0
M  END
>  <InstanceId>
4E3G_PHB_A_303

>  <ChemCompId>
PHB

>  <PdbId>
4E3G

>  <ChainId>
A

>  <ResidueNumber>
303

>  <InsertionCode>


>  <Model>
1

>  <AltIds>


>  <MissingHeavyAtoms>
0

>  <ObservedFormula>
C7 O3

>  <Name>
P-HYDROXYBENZOIC ACID

>  <SystematicName>
4-oxidanylbenzoic acid

>  <Synonyms>


>  <Type>
NON-POLYMER

>  <Formula>
C7 H6 O3

>  <MolecularWeight>
138.121

>  <ModifiedDate>
2011-08-22

>  <Parent>


>  <OneLetterCode>


>  <SubcomponentList>


>  <AmbiguousFlag>
N

>  <InChI>
InChI=1S/C7H6O3/c8-6-3-1-5(2-4-6)7(9)10/h1-4,8H,(H,9,10)

>  <InChIKey>
FJKROLUGYXJWQN-UHFFFAOYSA-N

>  <SMILES>
c1cc(ccc1C(=O)O)O

$$$$
