4DJU_0KK_A_501
  RCSB PDB08012021293D
Coordinates from PDB:4DJU:A:501 Model:1 without hydrogens
 20 22  0  0  0  0            999 V2000
   21.8230   13.1940   22.6510   O 0  0  0  0  0  0  0  0  0  0  0  0
   21.9860   12.0030   22.8380   C 0  0  0  0  0  0  0  0  0  0  0  0
   21.7410   10.8480   21.8250   C 0  0  0  0  0  0  0  0  0  0  0  0
   22.0950    9.6270   22.5950   N 0  0  0  0  0  0  0  0  0  0  0  0
   22.4580   10.0150   23.8380   C 0  0  0  0  0  0  0  0  0  0  0  0
   22.4180   11.4310   24.0130   N 0  0  0  0  0  0  0  0  0  0  0  0
   22.8270    9.1960   24.8210   N 0  0  0  0  0  0  0  0  0  0  0  0
   22.7430   12.2060   25.2160   C 0  0  0  0  0  0  0  0  0  0  0  0
   20.2620   10.6920   21.4230   C 0  0  0  0  0  0  0  0  0  0  0  0
   19.8770    9.7650   20.4590   C 0  0  0  0  0  0  0  0  0  0  0  0
   18.5430    9.6320   20.0900   C 0  0  0  0  0  0  0  0  0  0  0  0
   17.5760   10.4230   20.6790   C 0  0  0  0  0  0  0  0  0  0  0  0
   17.9390   11.3360   21.6450   C 0  0  0  0  0  0  0  0  0  0  0  0
   19.2720   11.4690   22.0180   C 0  0  0  0  0  0  0  0  0  0  0  0
   22.6270   11.0910   20.5900   C 0  0  0  0  0  0  0  0  0  0  0  0
   22.4470   12.2110   19.7790   C 0  0  0  0  0  0  0  0  0  0  0  0
   23.2720   12.4360   18.6790   C 0  0  0  0  0  0  0  0  0  0  0  0
   24.2900   11.5520   18.3800   C 0  0  0  0  0  0  0  0  0  0  0  0
   24.4810   10.4370   19.1730   C 0  0  0  0  0  0  0  0  0  0  0  0
   23.6520   10.2040   20.2690   C 0  0  0  0  0  0  0  0  0  0  0  0
 18 17  2  0  0  0  0
 18 19  1  0  0  0  0
 17 16  1  0  0  0  0
 19 20  2  0  0  0  0
 16 15  2  0  0  0  0
 11 10  2  0  0  0  0
 11 12  1  0  0  0  0
 20 15  1  0  0  0  0
 10  9  1  0  0  0  0
 15  3  1  0  0  0  0
 12 13  2  0  0  0  0
  9  3  1  0  0  0  0
  9 14  2  0  0  0  0
 13 14  1  0  0  0  0
  3  4  1  0  0  0  0
  3  2  1  0  0  0  0
  4  5  1  0  0  0  0
  1  2  2  0  0  0  0
  2  6  1  0  0  0  0
  5  6  1  0  0  0  0
  5  7  2  0  0  0  0
  6  8  1  0  0  0  0
M  END
>  <InstanceId>
4DJU_0KK_A_501

>  <ChemCompId>
0KK

>  <PdbId>
4DJU

>  <ChainId>
A

>  <ResidueNumber>
501

>  <InsertionCode>


>  <Model>
1

>  <AltIds>


>  <MissingHeavyAtoms>
0

>  <ObservedFormula>
C16 N3 O

>  <Name>
(2E)-2-imino-3-methyl-5,5-diphenylimidazolidin-4-one

>  <SystematicName>
2-azanylidene-3-methyl-5,5-diphenyl-imidazolidin-4-one

>  <Synonyms>


>  <Type>
NON-POLYMER

>  <Formula>
C16 H15 N3 O

>  <MolecularWeight>
265.31

>  <ModifiedDate>
2012-03-16

>  <Parent>


>  <OneLetterCode>


>  <SubcomponentList>


>  <AmbiguousFlag>
N

>  <InChI>
InChI=1S/C16H15N3O/c1-19-14(20)16(18-15(19)17,12-8-4-2-5-9-12)13-10-6-3-7-11-13/h2-11H,1H3,(H2,17,18)

>  <InChIKey>
RNWLAFWLSSMCLN-UHFFFAOYSA-N

>  <SMILES>
[H]/N=C/1\NC(C(=O)N1C)(c2ccccc2)c3ccccc3

$$$$
