3RDO_BTN_A_300
  RCSB PDB08012020203D
Coordinates from PDB:3RDO:A:300 Model:1 without hydrogens
 16 17  0  0  0  0            999 V2000
  -24.4410  -19.6750   14.3640   C 0  0  0  0  0  0  0  0  0  0  0  0
  -23.8120  -20.7430   14.1980   O 0  0  0  0  0  0  0  0  0  0  0  0
  -25.4260  -19.6630   15.1460   O 0  0  0  0  0  0  0  0  0  0  0  0
  -23.9890  -18.4020   13.6940   C 0  0  0  0  0  0  0  0  0  0  0  0
  -25.1660  -17.5860   13.1570   C 0  0  0  0  0  0  0  0  0  0  0  0
  -25.8300  -18.2890   11.9640   C 0  0  0  0  0  0  0  0  0  0  0  0
  -26.9730  -17.4360   11.4130   C 0  0  0  0  0  0  0  0  0  0  0  0
  -27.5900  -18.0400   10.1280   C 0  0  0  0  0  0  0  0  0  0  0  0
  -26.6390  -17.9760    8.6980   S 0  0  0  0  0  0  0  0  0  0  0  0
  -28.0780  -18.5030    7.7250   C 0  0  0  0  0  0  0  0  0  0  0  0
  -29.2640  -17.7400    8.3090   C 0  0  0  0  0  0  0  0  0  0  0  0
  -29.4290  -16.4380    7.7140   N 0  0  0  0  0  0  0  0  0  0  0  0
  -29.1930  -15.4960    8.5970   C 0  0  0  0  0  0  0  0  0  0  0  0
  -29.2060  -14.1630    8.2800   O 0  0  0  0  0  0  0  0  0  0  0  0
  -28.9660  -15.9710    9.8160   N 0  0  0  0  0  0  0  0  0  0  0  0
  -28.9560  -17.4300    9.7770   C 0  0  0  0  0  0  0  0  0  0  0  0
  1  2  2  0  0  0  0
  1  3  1  0  0  0  0
  1  4  1  0  0  0  0
  4  5  1  0  0  0  0
  5  6  1  0  0  0  0
  6  7  1  0  0  0  0
  7  8  1  0  0  0  0
  8  9  1  0  0  0  0
  8 16  1  0  0  0  0
  9 10  1  0  0  0  0
 10 11  1  0  0  0  0
 11 12  1  0  0  0  0
 11 16  1  0  0  0  0
 12 13  1  0  0  0  0
 13 14  2  0  0  0  0
 13 15  1  0  0  0  0
 15 16  1  0  0  0  0
M  END
>  <InstanceId>
3RDO_BTN_A_300

>  <ChemCompId>
BTN

>  <PdbId>
3RDO

>  <ChainId>
A

>  <ResidueNumber>
300

>  <InsertionCode>


>  <Model>
1

>  <AltIds>


>  <MissingHeavyAtoms>
0

>  <ObservedFormula>
C10 N2 O3 S

>  <Name>
BIOTIN

>  <SystematicName>
5-[(3aS,4S,6aR)-2-oxidanylidene-1,3,3a,4,6,6a-hexahydrothieno[3,4-d]imidazol-4-yl]pentanoic acid

>  <Synonyms>


>  <Type>
NON-POLYMER

>  <Formula>
C10 H16 N2 O3 S

>  <MolecularWeight>
244.311

>  <ModifiedDate>
2014-04-29

>  <Parent>


>  <OneLetterCode>


>  <SubcomponentList>


>  <AmbiguousFlag>
N

>  <InChI>
InChI=1S/C10H16N2O3S/c13-8(14)4-2-1-3-7-9-6(5-16-7)11-10(15)12-9/h6-7,9H,1-5H2,(H,13,14)(H2,11,12,15)/t6-,7-,9-/m0/s1

>  <InChIKey>
YBJHBAHKTGYVGT-ZKWXMUAHSA-N

>  <SMILES>
C1[C@H]2[C@@H]([C@@H](S1)CCCCC(=O)O)NC(=O)N2

$$$$
