1EBW_BEI_A_501
  RCSB PDB08012014493D
Coordinates from PDB:1EBW:A:501 Model:1 without hydrogens
 46 47  0  0  0  0            999 V2000
    9.9100   24.1780    2.1720   C 0  0  0  0  0  0  0  0  0  0  0  0
    9.2280   25.3590    1.8090   C 0  0  0  0  0  0  0  0  0  0  0  0
    7.8190   25.4550    1.9400   C 0  0  0  0  0  0  0  0  0  0  0  0
    7.0880   24.3570    2.4430   C 0  0  0  0  0  0  0  0  0  0  0  0
    7.7540   23.1590    2.8160   C 0  0  0  0  0  0  0  0  0  0  0  0
    9.1700   23.0730    2.6790   C 0  0  0  0  0  0  0  0  0  0  0  0
   16.4460   22.1800    8.7940   C 0  0  0  0  0  0  0  0  0  0  0  0
   15.6340   21.2070    9.4800   C 0  0  0  0  0  0  0  0  0  0  0  0
   16.2240   20.0240   10.0370   C 0  0  0  0  0  0  0  0  0  0  0  0
   17.6170   19.8240    9.9050   C 0  0  0  0  0  0  0  0  0  0  0  0
   18.4340   20.7940    9.2210   C 0  0  0  0  0  0  0  0  0  0  0  0
   17.8460   21.9740    8.6640   C 0  0  0  0  0  0  0  0  0  0  0  0
   15.8020   23.4140    8.2000   C 0  0  0  0  0  0  0  0  0  0  0  0
   14.7140   23.0580    7.2820   O 0  0  0  0  0  0  0  0  0  0  0  0
   15.1550   22.6460    5.9370   C 0  0  0  0  0  0  0  0  0  0  0  0
   14.0930   23.0280    4.9120   C 0  0  0  0  0  0  0  0  0  0  0  0
   13.6800   24.4670    4.9960   C 0  0  0  0  0  0  0  0  0  0  0  0
   12.2940   24.6570    4.2920   C 0  0  0  0  0  0  0  0  0  0  0  0
   11.1140   24.6630    5.2640   C 0  0  0  0  0  0  0  0  0  0  0  0
   10.8230   23.6230    5.8630   O 0  0  0  0  0  0  0  0  0  0  0  0
   10.4190   25.8270    5.4040   N 0  0  0  0  0  0  0  0  0  0  0  0
    9.2350   25.9870    6.2840   C 0  0  0  0  0  0  0  0  0  0  0  0
    9.5850   26.6710    7.6650   C 0  0  0  0  0  0  0  0  0  0  0  0
    8.2980   26.8910    8.5270   C 0  0  0  0  0  0  0  0  0  0  0  0
   10.6480   25.8520    8.4900   C 0  0  0  0  0  0  0  0  0  0  0  0
   11.3160   26.7570    9.5730   C 0  0  0  0  0  0  0  0  0  0  0  0
    8.2700   26.8820    5.5190   C 0  0  0  0  0  0  0  0  0  0  0  0
    8.6910   27.9580    5.0600   O 0  0  0  0  0  0  0  0  0  0  0  0
    6.9760   26.4220    5.3980   N 0  0  0  0  0  0  0  0  0  0  0  0
    6.0360   27.2650    4.6770   C 0  0  0  0  0  0  0  0  0  0  0  0
   12.0690   23.6150    3.2490   O 0  0  0  0  0  0  0  0  0  0  0  0
   11.4240   24.0930    2.0330   C 0  0  0  0  0  0  0  0  0  0  0  0
   14.7800   25.2040    4.3700   O 0  0  0  0  0  0  0  0  0  0  0  0
   14.6060   22.7820    3.5510   O 0  0  0  0  0  0  0  0  0  0  0  0
   15.3520   21.1950    5.7900   C 0  0  0  0  0  0  0  0  0  0  0  0
   14.3850   20.4830    6.1080   O 0  0  0  0  0  0  0  0  0  0  0  0
   16.5460   20.7420    5.3250   N 0  0  0  0  0  0  0  0  0  0  0  0
   16.8210   19.3220    5.1510   C 0  0  0  0  0  0  0  0  0  0  0  0
   16.7560   18.8890    3.6270   C 0  0  0  0  0  0  0  0  0  0  0  0
   17.2260   17.3950    3.4290   C 0  0  0  0  0  0  0  0  0  0  0  0
   15.3220   19.0400    3.0550   C 0  0  0  0  0  0  0  0  0  0  0  0
   15.3410   19.0800    1.5130   C 0  0  0  0  0  0  0  0  0  0  0  0
   18.2000   19.0980    5.7050   C 0  0  0  0  0  0  0  0  0  0  0  0
   19.1520   19.7800    5.2690   O 0  0  0  0  0  0  0  0  0  0  0  0
   18.2940   18.1270    6.6760   N 0  0  0  0  0  0  0  0  0  0  0  0
   19.6250   17.8910    7.2220   C 0  0  0  0  0  0  0  0  0  0  0  0
  1  2  2  0  0  0  0
  1  6  1  0  0  0  0
  1 32  1  0  0  0  0
  2  3  1  0  0  0  0
  3  4  2  0  0  0  0
  4  5  1  0  0  0  0
  5  6  2  0  0  0  0
  7  8  2  0  0  0  0
  7 12  1  0  0  0  0
  7 13  1  0  0  0  0
  8  9  1  0  0  0  0
  9 10  2  0  0  0  0
 10 11  1  0  0  0  0
 11 12  2  0  0  0  0
 13 14  1  0  0  0  0
 14 15  1  0  0  0  0
 15 16  1  0  0  0  0
 15 35  1  0  0  0  0
 16 17  1  0  0  0  0
 16 34  1  0  0  0  0
 17 18  1  0  0  0  0
 17 33  1  0  0  0  0
 18 19  1  0  0  0  0
 18 31  1  0  0  0  0
 19 20  2  0  0  0  0
 19 21  1  0  0  0  0
 21 22  1  0  0  0  0
 22 23  1  0  0  0  0
 22 27  1  0  0  0  0
 23 24  1  0  0  0  0
 23 25  1  0  0  0  0
 25 26  1  0  0  0  0
 27 28  2  0  0  0  0
 27 29  1  0  0  0  0
 29 30  1  0  0  0  0
 31 32  1  0  0  0  0
 35 36  2  0  0  0  0
 35 37  1  0  0  0  0
 37 38  1  0  0  0  0
 38 39  1  0  0  0  0
 38 43  1  0  0  0  0
 39 40  1  0  0  0  0
 39 41  1  0  0  0  0
 41 42  1  0  0  0  0
 43 44  2  0  0  0  0
 43 45  1  0  0  0  0
 45 46  1  0  0  0  0
M  END
>  <InstanceId>
1EBW_BEI_A_501

>  <ChemCompId>
BEI

>  <PdbId>
1EBW

>  <ChainId>
A

>  <ResidueNumber>
501

>  <InsertionCode>


>  <Model>
1

>  <AltIds>


>  <MissingHeavyAtoms>
0

>  <ObservedFormula>
C34 N4 O8

>  <Name>
N,N-[2,5-O-[DIBENZYL]-GLUCARYL]-DI-[ISOLEUCYL-AMIDO-METHANE]

>  <SystematicName>
(2R,3R,4R,5R)-3,4-dihydroxy-N,N'-bis[(2S,3S)-3-methyl-1-methylamino-1-oxo-pentan-2-yl]-2,5-bis(phenylmethoxy)hexanediamide

>  <Synonyms>
INHIBITOR BEA322

>  <Type>
NON-POLYMER

>  <Formula>
C34 H50 N4 O8

>  <MolecularWeight>
642.783

>  <ModifiedDate>
2011-06-04

>  <Parent>


>  <OneLetterCode>


>  <SubcomponentList>


>  <AmbiguousFlag>
N

>  <InChI>
InChI=1S/C34H50N4O8/c1-7-21(3)25(31(41)35-5)37-33(43)29(45-19-23-15-11-9-12-16-23)27(39)28(40)30(46-20-24-17-13-10-14-18-24)34(44)38-26(22(4)8-2)32(42)36-6/h9-18,21-22,25-30,39-40H,7-8,19-20H2,1-6H3,(H,35,41)(H,36,42)(H,37,43)(H,38,44)/t21-,22-,25-,26-,27+,28+,29+,30+/m0/s1

>  <InChIKey>
GLKONBHDVMFJNJ-XAOMMOPXSA-N

>  <SMILES>
CC[C@H](C)[C@@H](C(=O)NC)NC(=O)[C@@H]([C@@H]([C@H]([C@H](C(=O)N[C@@H]([C@@H](C)CC)C(=O)NC)OCc1ccccc1)O)O)OCc2ccccc2

$$$$
