3MOF_OXL_A_1000
  RCSB PDB08012019493D
Coordinates from PDB:3MOF:A:1000 Model:1 without hydrogens
  6  5  0  0  0  0            999 V2000
   10.3750    2.8750   46.4510   C 0  0  0  0  0  0  0  0  0  0  0  0
    9.5370    1.9960   45.6140   C 0  0  0  0  0  0  0  0  0  0  0  0
   10.6530    4.0480   46.0740   O 0  0  0  0  0  0  0  0  0  0  0  0
    9.3900    0.7770   45.9560   O 0  0  0  0  0  0  0  0  0  0  0  0
   10.7860    2.3980   47.5410   O 0  5  0  0  0  0  0  0  0  0  0  0
    8.9910    2.4980   44.5930   O 0  5  0  0  0  0  0  0  0  0  0  0
  1  2  1  0  0  0  0
  1  3  2  0  0  0  0
  1  5  1  0  0  0  0
  2  4  2  0  0  0  0
  2  6  1  0  0  0  0
M  CHG  2   5  -1   6  -1
M  END
>  <InstanceId>
3MOF_OXL_A_1000

>  <ChemCompId>
OXL

>  <PdbId>
3MOF

>  <ChainId>
A

>  <ResidueNumber>
1000

>  <InsertionCode>


>  <Model>
1

>  <AltIds>


>  <MissingHeavyAtoms>
0

>  <ObservedFormula>
C2 O4

>  <Name>
OXALATE ION

>  <SystematicName>
ethanedioate

>  <Synonyms>


>  <Type>
NON-POLYMER

>  <Formula>
C2 O4

>  <MolecularWeight>
88.019

>  <ModifiedDate>
2011-06-04

>  <Parent>


>  <OneLetterCode>


>  <SubcomponentList>


>  <AmbiguousFlag>
N

>  <InChI>
InChI=1S/C2H2O4/c3-1(4)2(5)6/h(H,3,4)(H,5,6)/p-2

>  <InChIKey>
MUBZPKHOEPUJKR-UHFFFAOYSA-L

>  <SMILES>
C(=O)(C(=O)[O-])[O-]

$$$$
