1C87_OPA_A_301
  RCSB PDB08012014413D
Coordinates from PDB:1C87:A:301 Model:1 without hydrogens
 18 19  0  0  0  0            999 V2000
   13.8520   44.7350   16.7810   O 0  0  0  0  0  0  0  0  0  0  0  0
   13.8860   45.2420   18.1090   C 0  0  0  0  0  0  0  0  0  0  0  0
   12.4530   45.3500   18.5400   C 0  0  0  0  0  0  0  0  0  0  0  0
   11.3710   45.0070   17.8060   C 0  0  0  0  0  0  0  0  0  0  0  0
   11.4160   44.1730   16.5640   C 0  0  0  0  0  0  0  0  0  0  0  0
   12.8920   43.6890   16.5220   C 0  0  0  0  0  0  0  0  0  0  0  0
   12.0250   46.1190   20.0430   S 0  0  0  0  0  0  0  0  0  0  0  0
   10.3900   45.9070   19.6500   C 0  0  0  0  0  0  0  0  0  0  0  0
   10.1010   45.3820   18.4480   C 0  0  0  0  0  0  0  0  0  0  0  0
    8.6910   45.2280   17.9250   C 0  0  0  0  0  0  0  0  0  0  0  0
    7.6230   45.4050   18.6800   O 0  0  0  0  0  0  0  0  0  0  0  0
    8.5240   44.8110   16.8090   O 0  0  0  0  0  0  0  0  0  0  0  0
    9.3280   46.2860   20.5150   N 0  0  0  0  0  0  0  0  0  0  0  0
    9.4010   46.9470   21.6870   C 0  0  0  0  0  0  0  0  0  0  0  0
    7.9860   47.3240   22.2660   C 0  0  0  0  0  0  0  0  0  0  0  0
    7.0460   46.5860   22.2500   O 0  0  0  0  0  0  0  0  0  0  0  0
    7.8950   48.5360   22.8840   O 0  0  0  0  0  0  0  0  0  0  0  0
   10.4090   47.1980   22.3170   O 0  0  0  0  0  0  0  0  0  0  0  0
  1  2  1  0  0  0  0
  1  6  1  0  0  0  0
  2  3  1  0  0  0  0
  3  4  2  0  0  0  0
  3  7  1  0  0  0  0
  4  5  1  0  0  0  0
  4  9  1  0  0  0  0
  5  6  1  0  0  0  0
  7  8  1  0  0  0  0
  8  9  2  0  0  0  0
  8 13  1  0  0  0  0
  9 10  1  0  0  0  0
 10 11  1  0  0  0  0
 10 12  2  0  0  0  0
 13 14  1  0  0  0  0
 14 15  1  0  0  0  0
 14 18  2  0  0  0  0
 15 16  1  0  0  0  0
 15 17  2  0  0  0  0
M  END
>  <InstanceId>
1C87_OPA_A_301

>  <ChemCompId>
OPA

>  <PdbId>
1C87

>  <ChainId>
A

>  <ResidueNumber>
301

>  <InsertionCode>


>  <Model>
1

>  <AltIds>


>  <MissingHeavyAtoms>
0

>  <ObservedFormula>
C10 N O6 S

>  <Name>
2-(OXALYL-AMINO)-4,7-DIHYDRO-5H-THIENO[2,3-C]PYRAN-3-CARBOXYLIC ACID

>  <SystematicName>
2-(carboxycarbonylamino)-5,7-dihydro-4H-thieno[5,4-c]pyran-3-carboxylic acid

>  <Synonyms>


>  <Type>
NON-POLYMER

>  <Formula>
C10 H9 N O6 S

>  <MolecularWeight>
271.247

>  <ModifiedDate>
2011-06-04

>  <Parent>


>  <OneLetterCode>


>  <SubcomponentList>


>  <AmbiguousFlag>
N

>  <InChI>
InChI=1S/C10H9NO6S/c12-7(10(15)16)11-8-6(9(13)14)4-1-2-17-3-5(4)18-8/h1-3H2,(H,11,12)(H,13,14)(H,15,16)

>  <InChIKey>
SNNOZMNTPOIDSI-UHFFFAOYSA-N

>  <SMILES>
C1COCc2c1c(c(s2)NC(=O)C(=O)O)C(=O)O

$$$$
