1XOW_R18_A_1001
  RCSB PDB08012016233D
Coordinates from PDB:1XOW:A:1001 Model:1 without hydrogens
 21 24  0  0  0  0            999 V2000
   27.2730    5.3280    3.7120   C 0  0  0  0  0  0  0  0  0  0  0  0
   26.4510    6.5420    4.1340   C 0  0  0  0  0  0  0  0  0  0  0  0
   24.9630    6.4080    3.9610   C 0  0  0  0  0  0  0  0  0  0  0  0
   24.4020    5.1070    4.2980   C 0  0  0  0  0  0  0  0  0  0  0  0
   25.1310    3.9470    4.3720   C 0  0  0  0  0  0  0  0  0  0  0  0
   24.4330    2.6110    4.7480   C 0  0  0  0  0  0  0  0  0  0  0  0
   25.1750    1.4490    4.0730   C 0  0  0  0  0  0  0  0  0  0  0  0
   26.6550    1.4300    4.4970   C 0  0  0  0  0  0  0  0  0  0  0  0
   27.3360    2.8010    4.1460   C 0  0  0  0  0  0  0  0  0  0  0  0
   26.6220    3.9420    4.0680   C 0  0  0  0  0  0  0  0  0  0  0  0
   28.8100    2.7460    3.9390   C 0  0  0  0  0  0  0  0  0  0  0  0
   29.5530    1.6240    4.0180   C 0  0  0  0  0  0  0  0  0  0  0  0
   28.9480    0.2640    4.3110   C 0  0  0  0  0  0  0  0  0  0  0  0
   27.4610    0.2610    3.8450   C 0  0  0  0  0  0  0  0  0  0  0  0
   26.9340   -1.1800    4.1400   C 0  0  0  0  0  0  0  0  0  0  0  0
   28.2410   -1.9740    3.8510   C 0  0  0  0  0  0  0  0  0  0  0  0
   29.4280   -0.9660    3.5200   C 0  0  0  0  0  0  0  0  0  0  0  0
   29.0060    0.0310    5.8840   C 0  0  0  0  0  0  0  0  0  0  0  0
   29.4750   -0.7980    2.0210   C 0  0  0  0  0  0  0  0  0  0  0  0
   24.2470    7.3520    3.6270   O 0  0  0  0  0  0  0  0  0  0  0  0
   30.6330   -1.5560    4.0600   O 0  0  0  0  0  0  0  0  0  0  0  0
  1  2  1  0  0  0  0
  1 10  1  0  0  0  0
  2  3  1  0  0  0  0
  3  4  1  0  0  0  0
  3 20  2  0  0  0  0
  4  5  2  0  0  0  0
  5  6  1  0  0  0  0
  5 10  1  0  0  0  0
  6  7  1  0  0  0  0
  7  8  1  0  0  0  0
  8  9  1  0  0  0  0
  8 14  1  0  0  0  0
  9 10  2  0  0  0  0
  9 11  1  0  0  0  0
 11 12  2  0  0  0  0
 12 13  1  0  0  0  0
 13 14  1  0  0  0  0
 13 17  1  0  0  0  0
 13 18  1  0  0  0  0
 14 15  1  0  0  0  0
 15 16  1  0  0  0  0
 16 17  1  0  0  0  0
 17 19  1  0  0  0  0
 17 21  1  0  0  0  0
M  END
>  <InstanceId>
1XOW_R18_A_1001

>  <ChemCompId>
R18

>  <PdbId>
1XOW

>  <ChainId>
A

>  <ResidueNumber>
1001

>  <InsertionCode>


>  <Model>
1

>  <AltIds>


>  <MissingHeavyAtoms>
0

>  <ObservedFormula>
C19 O2

>  <Name>
(17BETA)-17-HYDROXY-17-METHYLESTRA-4,9,11-TRIEN-3-ONE

>  <SystematicName>
(8S,13S,14S,17S)-17-hydroxy-13,17-dimethyl-1,2,6,7,8,14,15,16-octahydrocyclopenta[a]phenanthren-3-one

>  <Synonyms>
METHYLTRIENOLONE; 17BETA-HYDROXY-17METHYL-19NORANDROSTA-4,9,11-TRIEN-3-ONE; R1881

>  <Type>
NON-POLYMER

>  <Formula>
C19 H24 O2

>  <MolecularWeight>
284.393

>  <ModifiedDate>
2020-06-17

>  <Parent>


>  <OneLetterCode>


>  <SubcomponentList>


>  <AmbiguousFlag>
N

>  <InChI>
InChI=1S/C19H24O2/c1-18-9-7-15-14-6-4-13(20)11-12(14)3-5-16(15)17(18)8-10-19(18,2)21/h7,9,11,16-17,21H,3-6,8,10H2,1-2H3/t16-,17+,18+,19+/m1/s1

>  <InChIKey>
CCCIJQPRIXGQOE-XWSJACJDSA-N

>  <SMILES>
C[C@@]1(CC[C@@H]2[C@@]1(C=CC3=C4CCC(=O)C=C4CC[C@@H]23)C)O

$$$$
