6G3A_5ID_A_805
  RCSB PDB08022004453D
Coordinates from PDB:6G3A:A:805 Model:1 without hydrogens
 20 22  0  0  0  0            999 V2000
   13.1640    7.8960    9.6720   O 0  0  0  0  0  0  0  0  0  0  0  0
   14.3930    7.3690   10.1820   C 0  0  0  0  0  0  0  0  0  0  0  0
   14.6370    7.7240   11.6290   C 0  0  0  0  0  0  0  0  0  0  0  0
   14.8650    9.1390   11.7710   O 0  0  0  0  0  0  0  0  0  0  0  0
   14.2730    9.6260   12.9570   C 0  0  0  0  0  0  0  0  0  0  0  0
   13.2070   10.5610   12.6080   N 0  0  0  0  0  0  0  0  0  0  0  0
   12.5280   10.6340   11.4220   C 0  0  0  0  0  0  0  0  0  0  0  0
   11.6460   11.6700   11.4670   C 0  0  0  0  0  0  0  0  0  0  0  0
   11.7620   12.2950   12.7400   C 0  0  0  0  0  0  0  0  0  0  0  0
   11.1460   13.3360   13.4820   C 0  0  0  0  0  0  0  0  0  0  0  0
   11.5510   13.5830   14.7440   N 0  0  0  0  0  0  0  0  0  0  0  0
   12.5140   12.8130   15.2560   C 0  0  0  0  0  0  0  0  0  0  0  0
   13.1500   11.7990   14.6810   N 0  0  0  0  0  0  0  0  0  0  0  0
   12.7520   11.5640   13.4240   C 0  0  0  0  0  0  0  0  0  0  0  0
   10.1520   14.0800   13.0010   N 0  0  0  0  0  0  0  0  0  0  0  0
   13.7900    8.4060   13.7290   C 0  0  0  0  0  0  0  0  0  0  0  0
   14.8410    7.9870   14.6050   O 0  0  0  0  0  0  0  0  0  0  0  0
   13.4950    7.4400   12.5950   C 0  0  0  0  0  0  0  0  0  0  0  0
   13.5260    6.0640   12.9910   O 0  0  0  0  0  0  0  0  0  0  0  0
   10.3830   12.1890    9.9030   I 0  0  0  0  0  0  0  0  0  0  0  0
  1  2  1  0  0  0  0
  2  3  1  0  0  0  0
  3  4  1  0  0  0  0
  3 18  1  0  0  0  0
  4  5  1  0  0  0  0
  5  6  1  0  0  0  0
  5 16  1  0  0  0  0
  6  7  1  0  0  0  0
  6 14  1  0  0  0  0
  7  8  2  0  0  0  0
  8  9  1  0  0  0  0
  8 20  1  0  0  0  0
  9 10  2  0  0  0  0
  9 14  1  0  0  0  0
 10 11  1  0  0  0  0
 10 15  1  0  0  0  0
 11 12  2  0  0  0  0
 12 13  1  0  0  0  0
 13 14  2  0  0  0  0
 16 17  1  0  0  0  0
 16 18  1  0  0  0  0
 18 19  1  0  0  0  0
M  END
>  <InstanceId>
6G3A_5ID_A_805

>  <ChemCompId>
5ID

>  <PdbId>
6G3A

>  <ChainId>
A

>  <ResidueNumber>
805

>  <InsertionCode>


>  <Model>
1

>  <AltIds>


>  <MissingHeavyAtoms>
0

>  <ObservedFormula>
C11 N4 O4 I

>  <Name>
(2R,3R,4S,5R)-2-(4-AMINO-5-IODO-7H-PYRROLO[2,3-D]PYRIMIDIN-7-YL)-5-(HYDROXYMETHYL)TETRAHYDROFURAN-3,4-DIOL

>  <SystematicName>
(2R,3R,4S,5R)-2-(4-amino-5-iodo-pyrrolo[2,3-d]pyrimidin-7-yl)-5-(hydroxymethyl)oxolane-3,4-diol

>  <Synonyms>
5-IODOTUBERCIDIN

>  <Type>
NON-POLYMER

>  <Formula>
C11 H13 I N4 O4

>  <MolecularWeight>
392.15

>  <ModifiedDate>
2020-06-17

>  <Parent>


>  <OneLetterCode>


>  <SubcomponentList>


>  <AmbiguousFlag>
N

>  <InChI>
InChI=1S/C11H13IN4O4/c12-4-1-16(10-6(4)9(13)14-3-15-10)11-8(19)7(18)5(2-17)20-11/h1,3,5,7-8,11,17-19H,2H2,(H2,13,14,15)/t5-,7-,8-,11-/m1/s1

>  <InChIKey>
WHSIXKUPQCKWBY-IOSLPCCCSA-N

>  <SMILES>
c1c(c2c(ncnc2n1[C@H]3[C@@H]([C@@H]([C@H](O3)CO)O)O)N)I

$$$$
