4Q1Y_017_A_106
  RCSB PDB08012022573D
Coordinates from PDB:4Q1Y:A:106 Model:1 without hydrogens
 38 41  0  0  0  0            999 V2000
   14.2420   34.9950   18.0240   N 0  0  0  0  0  0  0  0  0  0  0  0
   15.1890   34.4520   17.2070   C 0  0  0  0  0  0  0  0  0  0  0  0
   15.0180   33.1430   16.7880   C 0  0  0  0  0  0  0  0  0  0  0  0
   15.9820   32.5760   15.9500   C 0  0  0  0  0  0  0  0  0  0  0  0
   17.1030   33.2920   15.5100   C 0  0  0  0  0  0  0  0  0  0  0  0
   17.2580   34.6150   15.9270   C 0  0  0  0  0  0  0  0  0  0  0  0
   16.2820   35.2020   16.7770   C 0  0  0  0  0  0  0  0  0  0  0  0
   18.1920   32.5390   14.5510   S 0  0  0  0  0  0  0  0  0  0  0  0
   17.5110   31.4580   13.9340   O 0  0  0  0  0  0  0  0  0  0  0  0
   18.8450   33.4870   13.6920   O 0  0  0  0  0  0  0  0  0  0  0  0
   19.4320   31.9370   15.4220   N 0  0  0  0  0  0  0  0  0  0  0  0
   20.2190   32.9130   16.2250   C 0  0  0  0  0  0  0  0  0  0  0  0
   21.6980   32.5360   16.2890   C 0  0  0  0  0  0  0  0  0  0  0  0
   22.3930   33.5330   17.2170   C 0  0  0  0  0  0  0  0  0  0  0  0
   22.3290   32.5620   14.9000   C 0  0  0  0  0  0  0  0  0  0  0  0
   19.1180   30.6680   16.1330   C 0  0  0  0  0  0  0  0  0  0  0  0
   20.0520   29.5620   15.6240   C 0  0  0  0  0  0  0  0  0  0  0  0
   19.9790   28.4060   16.4980   O 0  0  0  0  0  0  0  0  0  0  0  0
   19.7020   29.1080   14.2090   C 0  0  0  0  0  0  0  0  0  0  0  0
   20.8050   28.2910   13.7280   N 0  0  0  0  0  0  0  0  0  0  0  0
   21.6900   28.6610   12.8270   C 0  0  0  0  0  0  0  0  0  0  0  0
   21.7760   29.6980   12.2240   O 0  0  0  0  0  0  0  0  0  0  0  0
   22.6590   27.6520   12.6160   O 0  0  0  0  0  0  0  0  0  0  0  0
   23.4950   27.8180   11.4680   C 0  0  0  0  0  0  0  0  0  0  0  0
   24.8210   27.2000   11.8460   C 0  0  0  0  0  0  0  0  0  0  0  0
   24.5770   25.8070   11.7410   O 0  0  0  0  0  0  0  0  0  0  0  0
   23.6880   25.5800   10.6590   C 0  0  0  0  0  0  0  0  0  0  0  0
   22.6770   24.6860   11.0720   O 0  0  0  0  0  0  0  0  0  0  0  0
   21.4020   25.3420   11.1580   C 0  0  0  0  0  0  0  0  0  0  0  0
   21.5220   26.5950   10.2950   C 0  0  0  0  0  0  0  0  0  0  0  0
   23.0100   26.9110   10.3570   C 0  0  0  0  0  0  0  0  0  0  0  0
   18.4180   28.3030   14.0580   C 0  0  0  0  0  0  0  0  0  0  0  0
   17.8850   28.8480   11.6300   C 0  0  0  0  0  0  0  0  0  0  0  0
   17.6750   28.4690   10.3100   C 0  0  0  0  0  0  0  0  0  0  0  0
   17.7200   27.1330    9.9540   C 0  0  0  0  0  0  0  0  0  0  0  0
   17.9970   26.1890   10.9310   C 0  0  0  0  0  0  0  0  0  0  0  0
   18.1930   26.5760   12.2600   C 0  0  0  0  0  0  0  0  0  0  0  0
   18.1690   27.9070   12.6050   C 0  0  0  0  0  0  0  0  0  0  0  0
  1  2  1  0  0  0  0
  2  3  2  0  0  0  0
  2  7  1  0  0  0  0
  3  4  1  0  0  0  0
  4  5  2  0  0  0  0
  5  6  1  0  0  0  0
  5  8  1  0  0  0  0
  6  7  2  0  0  0  0
  8  9  2  0  0  0  0
  8 10  2  0  0  0  0
  8 11  1  0  0  0  0
 11 12  1  0  0  0  0
 11 16  1  0  0  0  0
 12 13  1  0  0  0  0
 13 14  1  0  0  0  0
 13 15  1  0  0  0  0
 16 17  1  0  0  0  0
 17 18  1  0  0  0  0
 17 19  1  0  0  0  0
 19 20  1  0  0  0  0
 19 32  1  0  0  0  0
 20 21  1  0  0  0  0
 21 22  2  0  0  0  0
 21 23  1  0  0  0  0
 23 24  1  0  0  0  0
 24 25  1  0  0  0  0
 24 31  1  0  0  0  0
 25 26  1  0  0  0  0
 26 27  1  0  0  0  0
 27 28  1  0  0  0  0
 27 31  1  0  0  0  0
 28 29  1  0  0  0  0
 29 30  1  0  0  0  0
 30 31  1  0  0  0  0
 32 38  1  0  0  0  0
 33 34  2  0  0  0  0
 33 38  1  0  0  0  0
 34 35  1  0  0  0  0
 35 36  2  0  0  0  0
 36 37  1  0  0  0  0
 37 38  2  0  0  0  0
M  END
>  <InstanceId>
4Q1Y_017_A_106

>  <ChemCompId>
017

>  <PdbId>
4Q1Y

>  <ChainId>
A

>  <ResidueNumber>
106

>  <InsertionCode>


>  <Model>
1

>  <AltIds>


>  <MissingHeavyAtoms>
0

>  <ObservedFormula>
C27 N3 O7 S

>  <Name>
(3R,3AS,6AR)-HEXAHYDROFURO[2,3-B]FURAN-3-YL(1S,2R)-3-[[(4-AMINOPHENYL)SULFONYL](ISOBUTYL)AMINO]-1-BENZYL-2-HYDROXYPROPYLCARBAMATE

>  <SystematicName>
[(3R,3aS,6aR)-2,3,3a,4,5,6a-hexahydrofuro[2,3-b]furan-3-yl] N-[(2S,3R)-4-[(4-aminophenyl)sulfonyl-(2-methylpropyl)amino]-3-hydroxy-1-phenyl-butan-2-yl]carbamate

>  <Synonyms>
Darunavir; TMC114; UIC-94017

>  <Type>
NON-POLYMER

>  <Formula>
C27 H37 N3 O7 S

>  <MolecularWeight>
547.664

>  <ModifiedDate>
2020-05-22

>  <Parent>


>  <OneLetterCode>


>  <SubcomponentList>


>  <AmbiguousFlag>
N

>  <InChI>
InChI=1S/C27H37N3O7S/c1-18(2)15-30(38(33,34)21-10-8-20(28)9-11-21)16-24(31)23(14-19-6-4-3-5-7-19)29-27(32)37-25-17-36-26-22(25)12-13-35-26/h3-11,18,22-26,31H,12-17,28H2,1-2H3,(H,29,32)/t22-,23-,24+,25-,26+/m0/s1

>  <InChIKey>
CJBJHOAVZSMMDJ-HEXNFIEUSA-N

>  <SMILES>
CC(C)C[N@@](C[C@H]([C@H](Cc1ccccc1)NC(=O)O[C@H]2CO[C@@H]3[C@H]2CCO3)O)S(=O)(=O)c4ccc(cc4)N

$$$$
