5FSX_ADP_A_1262
  RCSB PDB08022001253D
Coordinates from PDB:5FSX:A:1262 Model:1 without hydrogens
 27 29  0  0  0  0            999 V2000
   64.1490    5.9810   86.4030   P 0  0  0  0  0  0  0  0  0  0  0  0
   62.7420    6.5460   86.4150   O 0  0  0  0  0  0  0  0  0  0  0  0
   65.1610    6.8500   87.1210   O 0  0  0  0  0  0  0  0  0  0  0  0
   64.2550    4.5240   86.7670   O 0  0  0  0  0  0  0  0  0  0  0  0
   63.6210    5.8420   83.5690   P 0  0  0  0  0  0  0  0  0  0  0  0
   62.3800    5.0600   83.9520   O 0  0  0  0  0  0  0  0  0  0  0  0
   64.4570    5.3700   82.4070   O 0  0  0  0  0  0  0  0  0  0  0  0
   64.5880    6.0340   84.8500   O 0  0  0  0  0  0  0  0  0  0  0  0
   63.2250    7.3580   83.2060   O 0  0  0  0  0  0  0  0  0  0  0  0
   64.1520    8.4260   83.4190   C 0  0  0  0  0  0  0  0  0  0  0  0
   64.2030    9.3410   82.2010   C 0  0  0  0  0  0  0  0  0  0  0  0
   64.6360    8.5630   81.0880   O 0  0  0  0  0  0  0  0  0  0  0  0
   62.8490    9.9160   81.8190   C 0  0  0  0  0  0  0  0  0  0  0  0
   62.9780   11.2710   81.3740   O 0  0  0  0  0  0  0  0  0  0  0  0
   62.4030    9.0820   80.6400   C 0  0  0  0  0  0  0  0  0  0  0  0
   61.5090    9.8170   79.7910   O 0  0  0  0  0  0  0  0  0  0  0  0
   63.7530    8.7550   79.9930   C 0  0  0  0  0  0  0  0  0  0  0  0
   63.7000    7.5740   79.0980   N 0  0  0  0  0  0  0  0  0  0  0  0
   63.0010    6.4380   79.3180   C 0  0  0  0  0  0  0  0  0  0  0  0
   63.1580    5.5810   78.2840   N 0  0  0  0  0  0  0  0  0  0  0  0
   63.9570    6.1740   77.3790   C 0  0  0  0  0  0  0  0  0  0  0  0
   64.5210    5.7970   76.0680   C 0  0  0  0  0  0  0  0  0  0  0  0
   64.2240    4.5930   75.5350   N 0  0  0  0  0  0  0  0  0  0  0  0
   65.3130    6.6910   75.4410   N 0  0  0  0  0  0  0  0  0  0  0  0
   65.6060    7.8960   75.9830   C 0  0  0  0  0  0  0  0  0  0  0  0
   65.1360    8.2960   77.1800   N 0  0  0  0  0  0  0  0  0  0  0  0
   64.3190    7.4910   77.9140   C 0  0  0  0  0  0  0  0  0  0  0  0
  1  2  2  0  0  0  0
  1  3  1  0  0  0  0
  1  4  1  0  0  0  0
  1  8  1  0  0  0  0
  5  6  2  0  0  0  0
  5  7  1  0  0  0  0
  5  8  1  0  0  0  0
  5  9  1  0  0  0  0
  9 10  1  0  0  0  0
 10 11  1  0  0  0  0
 11 12  1  0  0  0  0
 11 13  1  0  0  0  0
 12 17  1  0  0  0  0
 13 14  1  0  0  0  0
 13 15  1  0  0  0  0
 15 16  1  0  0  0  0
 15 17  1  0  0  0  0
 17 18  1  0  0  0  0
 18 19  1  0  0  0  0
 18 27  1  0  0  0  0
 19 20  2  0  0  0  0
 20 21  1  0  0  0  0
 21 22  1  0  0  0  0
 21 27  2  0  0  0  0
 22 23  1  0  0  0  0
 22 24  2  0  0  0  0
 24 25  1  0  0  0  0
 25 26  2  0  0  0  0
 26 27  1  0  0  0  0
M  END
>  <InstanceId>
5FSX_ADP_A_1262

>  <ChemCompId>
ADP

>  <PdbId>
5FSX

>  <ChainId>
A

>  <ResidueNumber>
1262

>  <InsertionCode>


>  <Model>
1

>  <AltIds>


>  <MissingHeavyAtoms>
0

>  <ObservedFormula>
C10 N5 O10 P2

>  <Name>
ADENOSINE-5'-DIPHOSPHATE

>  <SystematicName>
[(2R,3S,4R,5R)-5-(6-aminopurin-9-yl)-3,4-dihydroxy-oxolan-2-yl]methyl phosphono hydrogen phosphate

>  <Synonyms>


>  <Type>
NON-POLYMER

>  <Formula>
C10 H15 N5 O10 P2

>  <MolecularWeight>
427.201

>  <ModifiedDate>
2011-06-04

>  <Parent>
A

>  <OneLetterCode>


>  <SubcomponentList>


>  <AmbiguousFlag>
N

>  <InChI>
InChI=1S/C10H15N5O10P2/c11-8-5-9(13-2-12-8)15(3-14-5)10-7(17)6(16)4(24-10)1-23-27(21,22)25-26(18,19)20/h2-4,6-7,10,16-17H,1H2,(H,21,22)(H2,11,12,13)(H2,18,19,20)/t4-,6-,7-,10-/m1/s1

>  <InChIKey>
XTWYTFMLZFPYCI-KQYNXXCUSA-N

>  <SMILES>
c1nc(c2c(n1)n(cn2)[C@H]3[C@@H]([C@@H]([C@H](O3)CO[P@](=O)(O)OP(=O)(O)O)O)O)N

$$$$
