4B6R_3DQ_A_1158
  RCSB PDB08012021113D
Coordinates from PDB:4B6R:A:1158 Model:1 without hydrogens
 22 23  0  0  0  0            999 V2000
   26.1420   50.1600  -20.2620   C 0  0  0  0  0  0  0  0  0  0  0  0
   25.3160   49.1700  -19.6400   O 0  0  0  0  0  0  0  0  0  0  0  0
   25.0340   49.2360  -18.3020   C 0  0  0  0  0  0  0  0  0  0  0  0
   23.7080   49.2950  -17.8410   C 0  0  0  0  0  0  0  0  0  0  0  0
   23.4680   49.3630  -16.4530   C 0  0  0  0  0  0  0  0  0  0  0  0
   26.0880   49.2200  -17.3900   C 0  0  0  0  0  0  0  0  0  0  0  0
   25.8340   49.2860  -16.0150   C 0  0  0  0  0  0  0  0  0  0  0  0
   24.5310   49.3520  -15.5140   C 0  0  0  0  0  0  0  0  0  0  0  0
   24.2990   49.4680  -13.9890   C 0  0  0  0  0  0  0  0  0  0  0  0
   24.2040   48.1720  -13.1770   C 0  0  0  0  0  0  0  0  0  0  0  0
   22.9370   47.6050  -13.7110   C 0  0  0  0  0  0  0  0  0  0  0  0
   23.0160   46.7760  -14.6130   O 0  0  0  0  0  0  0  0  0  0  0  0
   21.6200   48.1050  -13.1510   C 0  0  0  0  0  0  0  0  0  0  0  0
   20.5140   47.3330  -13.6510   O 0  0  0  0  0  0  0  0  0  0  0  0
   21.6370   48.1590  -11.6190   C 0  0  0  0  0  0  0  0  0  0  0  0
   20.4340   48.7910  -11.2420   O 0  0  0  0  0  0  0  0  0  0  0  0
   22.8490   48.9920  -11.0860   C 0  0  0  0  0  0  0  0  0  0  0  0
   24.1600   48.3560  -11.6340   C 0  0  0  0  0  0  0  0  0  0  0  0
   25.3900   49.1260  -11.1960   C 0  0  0  0  0  0  0  0  0  0  0  0
   25.2810   50.2850  -10.7250   O 0  0  0  0  0  0  0  0  0  0  0  0
   26.4720   48.5440  -11.3410   O 0  0  0  0  0  0  0  0  0  0  0  0
   24.2750   47.1250  -10.9260   O 0  0  0  0  0  0  0  0  0  0  0  0
  1  2  1  0  0  0  0
  2  3  1  0  0  0  0
  3  4  1  0  0  0  0
  3  6  2  0  0  0  0
  4  5  2  0  0  0  0
  5  8  1  0  0  0  0
  6  7  1  0  0  0  0
  7  8  2  0  0  0  0
  8  9  1  0  0  0  0
  9 10  1  0  0  0  0
 10 11  1  0  0  0  0
 10 18  1  0  0  0  0
 11 12  2  0  0  0  0
 11 13  1  0  0  0  0
 13 14  1  0  0  0  0
 13 15  1  0  0  0  0
 15 16  1  0  0  0  0
 15 17  1  0  0  0  0
 17 18  1  0  0  0  0
 18 19  1  0  0  0  0
 18 22  1  0  0  0  0
 19 21  1  0  0  0  0
 19 20  2  0  0  0  0
M  END
>  <InstanceId>
4B6R_3DQ_A_1158

>  <ChemCompId>
3DQ

>  <PdbId>
4B6R

>  <ChainId>
A

>  <ResidueNumber>
1158

>  <InsertionCode>


>  <Model>
1

>  <AltIds>


>  <MissingHeavyAtoms>
0

>  <ObservedFormula>
C15 O7

>  <Name>
(1R,2S,4S,5R)-2-(4-methoxyphenyl)methyl-1,4,5-trihydroxy-3-oxocyclohexane-1-carboxylic acid

>  <SystematicName>
(1R,2S,4S,5R)-2-[(4-methoxyphenyl)methyl]-1,4,5-tris(oxidanyl)-3-oxidanylidene-cyclohexane-1-carboxylic acid

>  <Synonyms>


>  <Type>
non-polymer

>  <Formula>
C15 H18 O7

>  <MolecularWeight>
310.299

>  <ModifiedDate>
2014-09-12

>  <Parent>


>  <OneLetterCode>


>  <SubcomponentList>


>  <AmbiguousFlag>
N

>  <InChI>
InChI=1S/C15H18O7/c1-22-9-4-2-8(3-5-9)6-10-12(17)13(18)11(16)7-15(10,21)14(19)20/h2-5,10-11,13,16,18,21H,6-7H2,1H3,(H,19,20)/t10-,11-,13+,15-/m1/s1

>  <InChIKey>
KDOXKRDIRCHNDT-UQFNBPPOSA-N

>  <SMILES>
COc1ccc(cc1)C[C@@H]2C(=O)[C@H]([C@@H](C[C@@]2(C(=O)O)O)O)O

$$$$
