4QPD_THG_A_402
  RCSB PDB08012023023D
Coordinates from PDB:4QPD:A:402 Model:1 without hydrogens
 32 34  0  0  0  0            999 V2000
   26.8190    9.3920   39.6470   N 0  0  0  0  0  0  0  0  0  0  0  0
   28.0230    9.8210   40.0860   C 0  0  0  0  0  0  0  0  0  0  0  0
   28.1670   10.9210   40.8770   N 0  0  0  0  0  0  0  0  0  0  0  0
   27.1010   11.6100   41.2440   C 0  0  0  0  0  0  0  0  0  0  0  0
   25.8400   11.2130   40.8080   C 0  0  0  0  0  0  0  0  0  0  0  0
   25.7650   10.1010   40.0230   C 0  0  0  0  0  0  0  0  0  0  0  0
   27.2390   12.7640   42.0520   N 0  0  0  0  0  0  0  0  0  0  0  0
   26.0750   13.1280   42.7360   C 0  0  0  0  0  0  0  0  0  0  0  0
   25.0230   13.3090   41.6960   C 0  0  0  0  0  0  0  0  0  0  0  0
   24.6950   11.9840   41.2060   N 0  0  0  0  0  0  0  0  0  0  0  0
   23.8170   13.9850   42.3150   C 0  0  0  0  0  0  0  0  0  0  0  0
   22.8200   14.3460   41.2940   N 0  0  0  0  0  0  0  0  0  0  0  0
   23.0400   15.4830   40.3860   C 0  0  0  0  0  0  0  0  0  0  0  0
   24.0860   16.4140   40.6340   C 0  0  0  0  0  0  0  0  0  0  0  0
   24.2790   17.4900   39.7670   C 0  0  0  0  0  0  0  0  0  0  0  0
   23.4270   17.6400   38.6430   C 0  0  0  0  0  0  0  0  0  0  0  0
   22.4000   16.7300   38.4070   C 0  0  0  0  0  0  0  0  0  0  0  0
   22.2030   15.6440   39.2850   C 0  0  0  0  0  0  0  0  0  0  0  0
   23.6430   18.8450   37.6810   C 0  0  0  0  0  0  0  0  0  0  0  0
   24.4560   19.8970   38.0960   N 0  0  0  0  0  0  0  0  0  0  0  0
   24.6650   21.0090   37.2390   C 0  0  0  0  0  0  0  0  0  0  0  0
   25.9110   20.7610   36.4110   C 0  0  0  0  0  0  0  0  0  0  0  0
   26.9220   20.1880   36.9210   O 0  0  0  0  0  0  0  0  0  0  0  0
   25.9260   21.1270   35.1970   O 0  0  0  0  0  0  0  0  0  0  0  0
   24.8420   22.2400   38.0930   C 0  0  0  0  0  0  0  0  0  0  0  0
   24.5900   23.4980   37.2560   C 0  0  0  0  0  0  0  0  0  0  0  0
   25.0030   24.7010   38.0900   C 0  0  0  0  0  0  0  0  0  0  0  0
   25.0340   24.6080   39.3450   O 0  0  0  0  0  0  0  0  0  0  0  0
   25.3180   25.7820   37.5160   O 0  0  0  0  0  0  0  0  0  0  0  0
   23.1080   18.8810   36.5920   O 0  0  0  0  0  0  0  0  0  0  0  0
   24.6640    9.7310   39.6330   O 0  0  0  0  0  0  0  0  0  0  0  0
   29.1710    9.0990   39.7140   N 0  0  0  0  0  0  0  0  0  0  0  0
  1  2  1  0  0  0  0
  1  6  1  0  0  0  0
  2  3  2  0  0  0  0
  2 32  1  0  0  0  0
  3  4  1  0  0  0  0
  4  5  2  0  0  0  0
  4  7  1  0  0  0  0
  5  6  1  0  0  0  0
  5 10  1  0  0  0  0
  6 31  2  0  0  0  0
  7  8  1  0  0  0  0
  8  9  1  0  0  0  0
  9 10  1  0  0  0  0
  9 11  1  0  0  0  0
 11 12  1  0  0  0  0
 12 13  1  0  0  0  0
 13 14  2  0  0  0  0
 13 18  1  0  0  0  0
 14 15  1  0  0  0  0
 15 16  2  0  0  0  0
 16 17  1  0  0  0  0
 16 19  1  0  0  0  0
 17 18  2  0  0  0  0
 19 20  1  0  0  0  0
 19 30  2  0  0  0  0
 20 21  1  0  0  0  0
 21 22  1  0  0  0  0
 21 25  1  0  0  0  0
 22 23  1  0  0  0  0
 22 24  2  0  0  0  0
 25 26  1  0  0  0  0
 26 27  1  0  0  0  0
 27 28  2  0  0  0  0
 27 29  1  0  0  0  0
M  END
>  <InstanceId>
4QPD_THG_A_402

>  <ChemCompId>
THG

>  <PdbId>
4QPD

>  <ChainId>
A

>  <ResidueNumber>
402

>  <InsertionCode>


>  <Model>
1

>  <AltIds>


>  <MissingHeavyAtoms>
0

>  <ObservedFormula>
C19 N7 O6

>  <Name>
(6S)-5,6,7,8-TETRAHYDROFOLATE

>  <SystematicName>
(2S)-2-[[4-[[(6S)-2-amino-4-oxo-5,6,7,8-tetrahydro-3H-pteridin-6-yl]methylamino]phenyl]carbonylamino]pentanedioic acid

>  <Synonyms>


>  <Type>
NON-POLYMER

>  <Formula>
C19 H23 N7 O6

>  <MolecularWeight>
445.429

>  <ModifiedDate>
2011-06-04

>  <Parent>


>  <OneLetterCode>


>  <SubcomponentList>


>  <AmbiguousFlag>
N

>  <InChI>
InChI=1S/C19H23N7O6/c20-19-25-15-14(17(30)26-19)23-11(8-22-15)7-21-10-3-1-9(2-4-10)16(29)24-12(18(31)32)5-6-13(27)28/h1-4,11-12,21,23H,5-8H2,(H,24,29)(H,27,28)(H,31,32)(H4,20,22,25,26,30)/t11-,12-/m0/s1

>  <InChIKey>
MSTNYGQPCMXVAQ-RYUDHWBXSA-N

>  <SMILES>
c1cc(ccc1C(=O)N[C@@H](CCC(=O)O)C(=O)O)NC[C@H]2CNC3=C(N2)C(=O)NC(=N3)N

$$$$
