3F70_MLZ_A_20
  RCSB PDB08012018593D
Coordinates from PDB:3F70:A:20 Model:1 without hydrogens
 10  9  0  0  0  0            999 V2000
   30.0160   21.8440  -56.9690   N 0  0  0  0  0  0  0  0  0  0  0  0
   29.5160   20.9120  -55.9250   C 0  0  0  0  0  0  0  0  0  0  0  0
   29.3400   19.5140  -56.5190   C 0  0  0  0  0  0  0  0  0  0  0  0
   29.0710   18.3960  -55.4940   C 0  0  0  0  0  0  0  0  0  0  0  0
   28.1100   17.3820  -56.1140   C 0  0  0  0  0  0  0  0  0  0  0  0
   28.2780   15.9960  -55.5150   C 0  0  0  0  0  0  0  0  0  0  0  0
   27.2820   15.0470  -56.0130   N 0  0  0  0  0  0  0  0  0  0  0  0
   27.0490   13.8980  -55.1360   C 0  0  0  0  0  0  0  0  0  0  0  0
   30.4380   20.9270  -54.7220   C 0  0  0  0  0  0  0  0  0  0  0  0
   29.9150   20.9890  -53.5880   O 0  0  0  0  0  0  0  0  0  0  0  0
  1  2  1  0  0  0  0
  2  3  1  0  0  0  0
  2  9  1  0  0  0  0
  3  4  1  0  0  0  0
  4  5  1  0  0  0  0
  5  6  1  0  0  0  0
  6  7  1  0  0  0  0
  7  8  1  0  0  0  0
  9 10  2  0  0  0  0
M  END
>  <InstanceId>
3F70_MLZ_A_20

>  <ChemCompId>
MLZ

>  <PdbId>
3F70

>  <ChainId>
A

>  <ResidueNumber>
20

>  <InsertionCode>


>  <Model>
1

>  <AltIds>


>  <MissingHeavyAtoms>
1

>  <ObservedFormula>
C7 N2 O

>  <Name>
N-METHYL-LYSINE

>  <SystematicName>
(2S)-2-amino-6-methylamino-hexanoic acid

>  <Synonyms>


>  <Type>
L-PEPTIDE LINKING

>  <Formula>
C7 H16 N2 O2

>  <MolecularWeight>
160.214

>  <ModifiedDate>
2011-06-04

>  <Parent>
LYS

>  <OneLetterCode>
K

>  <SubcomponentList>


>  <AmbiguousFlag>
N

>  <InChI>
InChI=1S/C7H16N2O2/c1-9-5-3-2-4-6(8)7(10)11/h6,9H,2-5,8H2,1H3,(H,10,11)/t6-/m0/s1

>  <InChIKey>
PQNASZJZHFPQLE-LURJTMIESA-N

>  <SMILES>
CNCCCC[C@@H](C(=O)O)N

$$$$
