2P3B_3TL_A_101
  RCSB PDB08012017413D
Coordinates from PDB:2P3B:A:101 Model:1 without hydrogens
 66 69  0  0  0  0            999 V2000
   16.6670    4.6770    8.9030   C 0  0  0  0  0  0  0  0  0  0  0  0
   15.6560    4.1020    8.5660   O 0  0  0  0  0  0  0  0  0  0  0  0
   16.7360    5.1730   10.2590   O 0  0  0  0  0  0  0  0  0  0  0  0
   15.5850    5.2870   11.1190   C 0  0  0  0  0  0  0  0  0  0  0  0
   14.5930    6.3850   10.7430   C 0  0  0  0  0  0  0  0  0  0  0  0
   13.3660    6.4650   11.4220   C 0  0  0  0  0  0  0  0  0  0  0  0
   12.4290    7.4580   11.1280   C 0  0  0  0  0  0  0  0  0  0  0  0
   12.7040    8.3800   10.1230   C 0  0  0  0  0  0  0  0  0  0  0  0
   13.9180    8.3160    9.4420   C 0  0  0  0  0  0  0  0  0  0  0  0
   14.8540    7.3220    9.7540   C 0  0  0  0  0  0  0  0  0  0  0  0
   17.7130    4.8450    8.0860   N 0  0  0  0  0  0  0  0  0  0  0  0
   17.5940    4.4730    6.6870   C 0  0  0  0  0  0  0  0  0  0  0  0
   18.4000    3.2580    6.2910   C 0  0  0  0  0  0  0  0  0  0  0  0
   19.5710    3.1260    6.6190   O 0  0  0  0  0  0  0  0  0  0  0  0
   17.9610    5.6430    5.7940   C 0  0  0  0  0  0  0  0  0  0  0  0
   17.7470    2.3440    5.5670   N 0  0  0  0  0  0  0  0  0  0  0  0
   18.4270    1.2580    4.8880   C 0  0  0  0  0  0  0  0  0  0  0  0
   18.1060    1.2250    3.4140   C 0  0  0  0  0  0  0  0  0  0  0  0
   16.9750    0.9450    3.0290   O 0  0  0  0  0  0  0  0  0  0  0  0
   18.0900   -0.0610    5.6110   C 0  0  0  0  0  0  0  0  0  0  0  0
   18.6220   -0.0890    7.0330   C 0  0  0  0  0  0  0  0  0  0  0  0
   18.6450   -1.2820    4.8830   C 0  0  0  0  0  0  0  0  0  0  0  0
   19.9170    0.3010    0.5580   C 0  0  0  0  0  0  0  0  0  0  0  0
   21.2460    0.5860    0.9080   O 0  0  0  0  0  0  0  0  0  0  0  0
   19.0010    1.4000    1.1110   C 0  0  0  0  0  0  0  0  0  0  0  0
   19.1050    1.5230    2.5720   N 0  0  0  0  0  0  0  0  0  0  0  0
   19.3040    2.7190    0.3850   C 0  0  0  0  0  0  0  0  0  0  0  0
   18.5000    3.8510    0.9740   C 0  0  0  0  0  0  0  0  0  0  0  0
   19.0740    4.7180    1.9090   C 0  0  0  0  0  0  0  0  0  0  0  0
   17.1690    4.0210    0.5890   C 0  0  0  0  0  0  0  0  0  0  0  0
   18.3270    5.7700    2.4510   C 0  0  0  0  0  0  0  0  0  0  0  0
   16.4220    5.0550    1.1450   C 0  0  0  0  0  0  0  0  0  0  0  0
   16.9930    5.9360    2.0700   C 0  0  0  0  0  0  0  0  0  0  0  0
   18.4460   -1.7280   -0.9840   N 0  0  0  0  0  0  0  0  0  0  0  0
   18.4020   -1.7950    0.4780   C 0  0  0  0  0  0  0  0  0  0  0  0
   19.6260   -1.1120    1.0700   C 0  0  0  0  0  0  0  0  0  0  0  0
   20.7310   -1.9100    0.7100   O 0  0  0  0  0  0  0  0  0  0  0  0
   18.4400   -3.2430    0.9910   C 0  0  0  0  0  0  0  0  0  0  0  0
   17.3180   -4.1040    0.4640   C 0  0  0  0  0  0  0  0  0  0  0  0
   17.3790   -4.6740   -0.8090   C 0  0  0  0  0  0  0  0  0  0  0  0
   16.2260   -4.3470    1.2860   C 0  0  0  0  0  0  0  0  0  0  0  0
   16.3440   -5.4800   -1.2880   C 0  0  0  0  0  0  0  0  0  0  0  0
   15.1880   -5.1450    0.8200   C 0  0  0  0  0  0  0  0  0  0  0  0
   15.2480   -5.7110   -0.4600   C 0  0  0  0  0  0  0  0  0  0  0  0
   17.1230   -2.3130   -3.9050   N 0  0  0  0  0  0  0  0  0  0  0  0
   17.8180   -1.2070   -3.2570   C 0  0  0  0  0  0  0  0  0  0  0  0
   17.5180   -1.1860   -1.7760   C 0  0  0  0  0  0  0  0  0  0  0  0
   16.4810   -0.7110   -1.3510   O 0  0  0  0  0  0  0  0  0  0  0  0
   17.4310    0.1090   -3.9360   C 0  0  0  0  0  0  0  0  0  0  0  0
   17.6890    0.0490   -5.4340   C 0  0  0  0  0  0  0  0  0  0  0  0
   18.1630    1.3140   -3.3410   C 0  0  0  0  0  0  0  0  0  0  0  0
   16.7390   -4.1720   -6.7660   N 0  0  0  0  0  0  0  0  0  0  0  0
   16.7230   -4.2260   -5.3210   C 0  0  0  0  0  0  0  0  0  0  0  0
   17.6760   -3.1990   -4.7340   C 0  0  0  0  0  0  0  0  0  0  0  0
   18.8650   -3.1800   -5.0270   O 0  0  0  0  0  0  0  0  0  0  0  0
   17.1010   -5.6250   -4.8540   C 0  0  0  0  0  0  0  0  0  0  0  0
   15.7220   -4.4510   -7.5800   C 0  0  0  0  0  0  0  0  0  0  0  0
   14.5470   -4.2180   -7.3560   O 0  0  0  0  0  0  0  0  0  0  0  0
   16.0620   -5.0780   -8.8290   O 0  0  0  0  0  0  0  0  0  0  0  0
   15.0850   -5.4240   -9.8190   C 0  0  0  0  0  0  0  0  0  0  0  0
   14.1950   -6.5710   -9.3900   C 0  0  0  0  0  0  0  0  0  0  0  0
   13.0460   -6.8660  -10.1410   C 0  0  0  0  0  0  0  0  0  0  0  0
   12.1950   -7.9080   -9.7670   C 0  0  0  0  0  0  0  0  0  0  0  0
   12.5080   -8.6630   -8.6390   C 0  0  0  0  0  0  0  0  0  0  0  0
   13.6480   -8.3780   -7.8840   C 0  0  0  0  0  0  0  0  0  0  0  0
   14.4930   -7.3300   -8.2620   C 0  0  0  0  0  0  0  0  0  0  0  0
  1  2  2  0  0  0  0
  1  3  1  0  0  0  0
  1 11  1  0  0  0  0
  3  4  1  0  0  0  0
  4  5  1  0  0  0  0
  5  6  2  0  0  0  0
  5 10  1  0  0  0  0
  6  7  1  0  0  0  0
  7  8  2  0  0  0  0
  8  9  1  0  0  0  0
  9 10  2  0  0  0  0
 11 12  1  0  0  0  0
 12 13  1  0  0  0  0
 12 15  1  0  0  0  0
 13 14  2  0  0  0  0
 13 16  1  0  0  0  0
 16 17  1  0  0  0  0
 17 18  1  0  0  0  0
 17 20  1  0  0  0  0
 18 19  2  0  0  0  0
 18 26  1  0  0  0  0
 20 21  1  0  0  0  0
 20 22  1  0  0  0  0
 23 24  1  0  0  0  0
 23 25  1  0  0  0  0
 23 36  1  0  0  0  0
 25 26  1  0  0  0  0
 25 27  1  0  0  0  0
 27 28  1  0  0  0  0
 28 29  2  0  0  0  0
 28 30  1  0  0  0  0
 29 31  1  0  0  0  0
 30 32  2  0  0  0  0
 31 33  2  0  0  0  0
 32 33  1  0  0  0  0
 34 35  1  0  0  0  0
 34 47  1  0  0  0  0
 35 36  1  0  0  0  0
 35 38  1  0  0  0  0
 36 37  1  0  0  0  0
 38 39  1  0  0  0  0
 39 40  2  0  0  0  0
 39 41  1  0  0  0  0
 40 42  1  0  0  0  0
 41 43  2  0  0  0  0
 42 44  2  0  0  0  0
 43 44  1  0  0  0  0
 45 46  1  0  0  0  0
 45 54  1  0  0  0  0
 46 47  1  0  0  0  0
 46 49  1  0  0  0  0
 47 48  2  0  0  0  0
 49 50  1  0  0  0  0
 49 51  1  0  0  0  0
 52 53  1  0  0  0  0
 52 57  1  0  0  0  0
 53 54  1  0  0  0  0
 53 56  1  0  0  0  0
 54 55  2  0  0  0  0
 57 58  2  0  0  0  0
 57 59  1  0  0  0  0
 59 60  1  0  0  0  0
 60 61  1  0  0  0  0
 61 62  2  0  0  0  0
 61 66  1  0  0  0  0
 62 63  1  0  0  0  0
 63 64  2  0  0  0  0
 64 65  1  0  0  0  0
 65 66  2  0  0  0  0
M  END
>  <InstanceId>
2P3B_3TL_A_101

>  <ChemCompId>
3TL

>  <PdbId>
2P3B

>  <ChainId>
A

>  <ResidueNumber>
101

>  <InsertionCode>


>  <Model>
1

>  <AltIds>


>  <MissingHeavyAtoms>
0

>  <ObservedFormula>
C50 N6 O10

>  <Name>
benzyl [(1S,4S,7S,8R,9R,10S,13S,16S)-7,10-dibenzyl-8,9-dihydroxy-1,16-dimethyl-4,13-bis(1-methylethyl)-2,5,12,15,18-pentaoxo-20-phenyl-19-oxa-3,6,11,14,17-pentaazaicos-1-yl]carbamate

>  <SystematicName>
phenylmethyl N-[(2S)-1-[[(2S)-1-[[(2S,3R,4R,5S)-3,4-dihydroxy-5-[[(2S)-3-methyl-2-[[(2S)-2-(phenylmethoxycarbonylamino)propanoyl]amino]butanoyl]amino]-1,6-diphenyl-hexan-2-yl]amino]-3-methyl-1-oxo-butan-2-yl]amino]-1-oxo-propan-2-yl]carbamate

>  <Synonyms>
TL-3, C2 symmetric inhibitor

>  <Type>
peptide-like

>  <Formula>
C50 H64 N6 O10

>  <MolecularWeight>
909.077

>  <ModifiedDate>
2011-06-04

>  <Parent>


>  <OneLetterCode>


>  <SubcomponentList>
PHQ ALA VAL PHL PHL VAL ALA PHQ

>  <AmbiguousFlag>
N

>  <InChI>
InChI=1S/C50H64N6O10/c1-31(2)41(55-45(59)33(5)51-49(63)65-29-37-23-15-9-16-24-37)47(61)53-39(27-35-19-11-7-12-20-35)43(57)44(58)40(28-36-21-13-8-14-22-36)54-48(62)42(32(3)4)56-46(60)34(6)52-50(64)66-30-38-25-17-10-18-26-38/h7-26,31-34,39-44,57-58H,27-30H2,1-6H3,(H,51,63)(H,52,64)(H,53,61)(H,54,62)(H,55,59)(H,56,60)/t33-,34-,39-,40-,41-,42-,43+,44+/m0/s1

>  <InChIKey>
BJJPNOGMLLUCER-KUTQPOQPSA-N

>  <SMILES>
C[C@@H](C(=O)N[C@@H](C(C)C)C(=O)N[C@@H](Cc1ccccc1)[C@H]([C@@H]([C@H](Cc2ccccc2)NC(=O)[C@H](C(C)C)NC(=O)[C@H](C)NC(=O)OCc3ccccc3)O)O)NC(=O)OCc4ccccc4

$$$$
