5KAB_OTA_A_306
  RCSB PDB08022002013D
Coordinates from PDB:5KAB:A:306 Model:1 without hydrogens
 18 19  0  0  0  0            999 V2000
   34.7350  -11.1920  -18.3220   N 0  0  0  0  0  0  0  0  0  0  0  0
   33.7230  -10.7040  -17.4250   C 0  0  0  0  0  0  0  0  0  0  0  0
   32.6010  -11.6480  -17.0050   C 0  0  0  0  0  0  0  0  0  0  0  0
   32.4700  -12.8510  -17.7620   C 0  0  0  0  0  0  0  0  0  0  0  0
   33.3670  -13.1700  -18.8970   C 0  0  0  0  0  0  0  0  0  0  0  0
   34.3510  -12.1580  -19.3430   C 0  0  0  0  0  0  0  0  0  0  0  0
   31.5040  -11.5880  -15.8820   S 0  0  0  0  0  0  0  0  0  0  0  0
   30.7150  -12.9260  -16.0680   C 0  0  0  0  0  0  0  0  0  0  0  0
   31.2640  -13.6540  -17.1660   C 0  0  0  0  0  0  0  0  0  0  0  0
   30.7550  -15.0220  -17.7250   C 0  0  0  0  0  0  0  0  0  0  0  0
   29.9060  -15.6790  -17.0580   O 0  0  0  0  0  0  0  0  0  0  0  0
   31.1910  -15.4540  -18.8830   O 0  0  0  0  0  0  0  0  0  0  0  0
   29.5840  -13.4040  -15.3560   N 0  0  0  0  0  0  0  0  0  0  0  0
   29.0810  -12.9740  -14.1150   C 0  0  0  0  0  0  0  0  0  0  0  0
   27.8000  -13.6770  -13.6930   C 0  0  0  0  0  0  0  0  0  0  0  0
   26.7970  -12.9040  -13.3980   O 0  0  0  0  0  0  0  0  0  0  0  0
   27.7460  -14.9500  -13.6750   O 0  0  0  0  0  0  0  0  0  0  0  0
   29.6200  -12.0960  -13.3760   O 0  0  0  0  0  0  0  0  0  0  0  0
  1  2  1  0  0  0  0
  1  6  1  0  0  0  0
  2  3  1  0  0  0  0
  3  4  2  0  0  0  0
  3  7  1  0  0  0  0
  4  5  1  0  0  0  0
  4  9  1  0  0  0  0
  5  6  1  0  0  0  0
  7  8  1  0  0  0  0
  8  9  2  0  0  0  0
  8 13  1  0  0  0  0
  9 10  1  0  0  0  0
 10 11  1  0  0  0  0
 10 12  2  0  0  0  0
 13 14  1  0  0  0  0
 14 15  1  0  0  0  0
 14 18  2  0  0  0  0
 15 16  1  0  0  0  0
 15 17  2  0  0  0  0
M  END
>  <InstanceId>
5KAB_OTA_A_306

>  <ChemCompId>
OTA

>  <PdbId>
5KAB

>  <ChainId>
A

>  <ResidueNumber>
306

>  <InsertionCode>


>  <Model>
1

>  <AltIds>


>  <MissingHeavyAtoms>
0

>  <ObservedFormula>
C10 N2 O5 S

>  <Name>
2-(OXALYL-AMINO)-4,5,6,7-TETRAHYDRO-THIENO[2,3-C]PYRIDINE-3-CARBOXYLIC ACID

>  <SystematicName>
2-(carboxycarbonylamino)-4,5,6,7-tetrahydrothieno[5,4-c]pyridine-3-carboxylic acid

>  <Synonyms>


>  <Type>
NON-POLYMER

>  <Formula>
C10 H10 N2 O5 S

>  <MolecularWeight>
270.262

>  <ModifiedDate>
2011-06-04

>  <Parent>


>  <OneLetterCode>


>  <SubcomponentList>


>  <AmbiguousFlag>
N

>  <InChI>
InChI=1S/C10H10N2O5S/c13-7(10(16)17)12-8-6(9(14)15)4-1-2-11-3-5(4)18-8/h11H,1-3H2,(H,12,13)(H,14,15)(H,16,17)

>  <InChIKey>
ZIBMATWHOAGNTR-UHFFFAOYSA-N

>  <SMILES>
C1CNCc2c1c(c(s2)NC(=O)C(=O)O)C(=O)O

$$$$
