6C7W_LMS_A_302
  RCSB PDB08022004113D
Coordinates from PDB:6C7W:A:302 Model:1 without hydrogens
 23 25  0  0  0  0            999 V2000
   -2.7230    6.3490   13.6850   N 0  0  0  0  0  0  0  0  0  0  0  0
   -1.8660    5.7570   12.8100   C 0  0  0  0  0  0  0  0  0  0  0  0
   -0.7820    6.4440   12.5980   N 0  0  0  0  0  0  0  0  0  0  0  0
   -0.9250    7.5600   13.4110   C 0  0  0  0  0  0  0  0  0  0  0  0
   -0.1290    8.6680   13.6850   C 0  0  0  0  0  0  0  0  0  0  0  0
    1.0920    8.8410   13.0810   N 0  0  0  0  0  0  0  0  0  0  0  0
   -0.5370    9.5710   14.5560   N 0  0  0  0  0  0  0  0  0  0  0  0
   -1.7240    9.3850   15.1360   C 0  0  0  0  0  0  0  0  0  0  0  0
   -2.5880    8.3860   14.9790   N 0  0  0  0  0  0  0  0  0  0  0  0
   -2.1190    7.5100   14.0890   C 0  0  0  0  0  0  0  0  0  0  0  0
   -5.2670   -0.1970   16.2610   N 0  0  0  0  0  0  0  0  0  0  0  0
   -5.5440    1.2180   16.8770   S 0  0  0  0  0  0  0  0  0  0  0  0
   -5.3280    1.2630   18.2760   O 0  0  0  0  0  0  0  0  0  0  0  0
   -6.7480    1.7370   16.3490   O 0  0  0  0  0  0  0  0  0  0  0  0
   -4.3330    2.1480   16.3910   O 0  0  0  0  0  0  0  0  0  0  0  0
   -4.1760    2.3760   14.9810   C 0  0  0  0  0  0  0  0  0  0  0  0
   -4.7580    3.7160   14.5640   C 0  0  0  0  0  0  0  0  0  0  0  0
   -3.8630    4.7360   14.9670   O 0  0  0  0  0  0  0  0  0  0  0  0
   -4.8530    3.8940   13.0790   C 0  0  0  0  0  0  0  0  0  0  0  0
   -5.9970    3.2370   12.5050   O 0  0  0  0  0  0  0  0  0  0  0  0
   -4.9630    5.3950   12.9640   C 0  0  0  0  0  0  0  0  0  0  0  0
   -6.3040    5.8180   13.1910   O 0  0  0  0  0  0  0  0  0  0  0  0
   -4.0420    5.8540   14.1020   C 0  0  0  0  0  0  0  0  0  0  0  0
 23  1  1  0  0  0  0
  1  2  1  0  0  0  0
  2  3  2  0  0  0  0
  3  4  1  0  0  0  0
  4  5  2  0  0  0  0
  5  6  1  0  0  0  0
  5  7  1  0  0  0  0
  7  8  2  0  0  0  0
  8  9  1  0  0  0  0
  1 10  1  0  0  0  0
  4 10  1  0  0  0  0
  9 10  2  0  0  0  0
 15 12  1  0  0  0  0
 13 12  2  0  0  0  0
 14 12  2  0  0  0  0
 11 12  1  0  0  0  0
 15 16  1  0  0  0  0
 16 17  1  0  0  0  0
 17 18  1  0  0  0  0
 17 19  1  0  0  0  0
 19 20  1  0  0  0  0
 19 21  1  0  0  0  0
 21 22  1  0  0  0  0
 18 23  1  0  0  0  0
 21 23  1  0  0  0  0
M  END
>  <InstanceId>
6C7W_LMS_A_302

>  <ChemCompId>
LMS

>  <PdbId>
6C7W

>  <ChainId>
A

>  <ResidueNumber>
302

>  <InsertionCode>


>  <Model>
1

>  <AltIds>


>  <MissingHeavyAtoms>
0

>  <ObservedFormula>
C10 N6 O6 S

>  <Name>
[(2R,3S,4R,5R)-5-(6-AMINO-9H-PURIN-9-YL)-3,4-DIHYDROXYTETRAHYDRO-2-FURANYL]METHYL SULFAMATE

>  <SystematicName>
[(2R,3S,4R,5R)-5-(6-aminopurin-9-yl)-3,4-dihydroxy-oxolan-2-yl]methyl sulfamate

>  <Synonyms>


>  <Type>
RNA LINKING

>  <Formula>
C10 H14 N6 O6 S

>  <MolecularWeight>
346.32

>  <ModifiedDate>
2011-06-04

>  <Parent>


>  <OneLetterCode>
N

>  <SubcomponentList>


>  <AmbiguousFlag>
N

>  <InChI>
InChI=1S/C10H14N6O6S/c11-8-5-9(14-2-13-8)16(3-15-5)10-7(18)6(17)4(22-10)1-21-23(12,19)20/h2-4,6-7,10,17-18H,1H2,(H2,11,13,14)(H2,12,19,20)/t4-,6-,7-,10-/m1/s1

>  <InChIKey>
GNZLUJQJDPRUTD-KQYNXXCUSA-N

>  <SMILES>
c1nc(c2c(n1)n(cn2)[C@H]3[C@@H]([C@@H]([C@H](O3)COS(=O)(=O)N)O)O)N

$$$$
