3PN4_BB2_A_501
  RCSB PDB08012020093D
Coordinates from PDB:3PN4:A:501 Model:1 without hydrogens
 27 27  0  0  0  0            999 V2000
    2.3850   16.7890   64.8010   C 0  0  0  0  0  0  0  0  0  0  0  0
    2.0600   16.6550   63.3460   C 0  0  0  0  0  0  0  0  0  0  0  0
    2.7830   17.1300   62.4710   O 0  0  0  0  0  0  0  0  0  0  0  0
    0.9110   16.0520   63.0730   N 0  0  0  0  0  0  0  0  0  0  0  0
    0.5820   15.9830   61.7500   O 0  0  0  0  0  0  0  0  0  0  0  0
    1.9650   18.1950   65.2730   C 0  0  0  0  0  0  0  0  0  0  0  0
    2.6800   18.5460   66.5810   C 0  0  0  0  0  0  0  0  0  0  0  0
    2.7860   17.7490   67.5370   O 0  0  0  0  0  0  0  0  0  0  0  0
    0.4250   18.2850   65.5240   C 0  0  0  0  0  0  0  0  0  0  0  0
    0.0180   19.7780   65.7070   C 0  0  0  0  0  0  0  0  0  0  0  0
   -1.4690   19.9300   66.0850   C 0  0  0  0  0  0  0  0  0  0  0  0
   -1.9350   21.4030   65.9100   C 0  0  0  0  0  0  0  0  0  0  0  0
   -1.5390   22.2130   67.1500   C 0  0  0  0  0  0  0  0  0  0  0  0
    3.1940   19.7800   66.5900   N 0  0  0  0  0  0  0  0  0  0  0  0
    3.8420   20.3250   67.7780   C 0  0  0  0  0  0  0  0  0  0  0  0
    5.3800   20.4780   67.6750   C 0  0  0  0  0  0  0  0  0  0  0  0
    6.0720   19.1300   67.4160   C 0  0  0  0  0  0  0  0  0  0  0  0
    5.7960   21.4590   66.5910   C 0  0  0  0  0  0  0  0  0  0  0  0
    3.0560   21.6300   68.0720   C 0  0  0  0  0  0  0  0  0  0  0  0
    2.6600   22.3360   67.1400   O 0  0  0  0  0  0  0  0  0  0  0  0
    2.7570   21.9720   69.3460   N 0  0  0  0  0  0  0  0  0  0  0  0
    1.9830   23.1760   69.7560   C 0  0  0  0  0  0  0  0  0  0  0  0
    3.1710   21.1460   70.5240   C 0  0  0  0  0  0  0  0  0  0  0  0
    2.5510   21.8270   71.7570   C 0  0  0  0  0  0  0  0  0  0  0  0
    1.5480   22.8660   71.2070   C 0  0  0  0  0  0  0  0  0  0  0  0
    2.8420   24.4630   69.7190   C 0  0  0  0  0  0  0  0  0  0  0  0
    2.0280   25.6170   69.9880   O 0  0  0  0  0  0  0  0  0  0  0  0
  1  2  1  0  0  0  0
  1  6  1  0  0  0  0
  2  3  2  0  0  0  0
  2  4  1  0  0  0  0
  4  5  1  0  0  0  0
  6  7  1  0  0  0  0
  6  9  1  0  0  0  0
  7  8  2  0  0  0  0
  7 14  1  0  0  0  0
  9 10  1  0  0  0  0
 10 11  1  0  0  0  0
 11 12  1  0  0  0  0
 12 13  1  0  0  0  0
 14 15  1  0  0  0  0
 15 16  1  0  0  0  0
 15 19  1  0  0  0  0
 16 17  1  0  0  0  0
 16 18  1  0  0  0  0
 19 20  2  0  0  0  0
 19 21  1  0  0  0  0
 21 22  1  0  0  0  0
 21 23  1  0  0  0  0
 22 25  1  0  0  0  0
 22 26  1  0  0  0  0
 23 24  1  0  0  0  0
 24 25  1  0  0  0  0
 26 27  1  0  0  0  0
M  END
>  <InstanceId>
3PN4_BB2_A_501

>  <ChemCompId>
BB2

>  <PdbId>
3PN4

>  <ChainId>
A

>  <ResidueNumber>
501

>  <InsertionCode>


>  <Model>
1

>  <AltIds>


>  <MissingHeavyAtoms>
0

>  <ObservedFormula>
C19 N3 O5

>  <Name>
ACTINONIN

>  <SystematicName>
(2R)-N'-hydroxy-N-[(2S)-1-[(2S)-2-(hydroxymethyl)pyrrolidin-1-yl]-3-methyl-1-oxo-butan-2-yl]-2-pentyl-butanediamide

>  <Synonyms>
2-[(FORMYL-HYDROXY-AMINO)-METHYL]-HEPTANOIC ACID [1-(2-HYDROXYMETHYL-PYRROLIDINE-1-CARBONYL)-2-METHYL-PROPYL]-AMIDE

>  <Type>
NON-POLYMER

>  <Formula>
C19 H35 N3 O5

>  <MolecularWeight>
385.498

>  <ModifiedDate>
2011-06-04

>  <Parent>


>  <OneLetterCode>


>  <SubcomponentList>


>  <AmbiguousFlag>
N

>  <InChI>
InChI=1S/C19H35N3O5/c1-4-5-6-8-14(11-16(24)21-27)18(25)20-17(13(2)3)19(26)22-10-7-9-15(22)12-23/h13-15,17,23,27H,4-12H2,1-3H3,(H,20,25)(H,21,24)/t14-,15+,17+/m1/s1

>  <InChIKey>
XJLATMLVMSFZBN-VYDXJSESSA-N

>  <SMILES>
CCCCC[C@H](CC(=O)NO)C(=O)N[C@@H](C(C)C)C(=O)N1CCC[C@H]1CO

$$$$
