2BPV_1IN_B_902
  RCSB PDB08012016423D
Coordinates from PDB:2BPV:B:902 Model:1 without hydrogens
 45 48  0  0  0  0            999 V2000
    9.1790   24.0720    4.1940   C 0  0  0  0  0  0  0  0  0  0  0  0
   10.3520   24.9650    4.6250   C 0  0  0  0  0  0  0  0  0  0  0  0
   10.4030   24.9800    6.1450   C 0  0  0  0  0  0  0  0  0  0  0  0
   18.5740   19.9240    4.9050   O 0  0  0  0  0  0  0  0  0  0  0  0
    7.9940   24.6190    0.8360   O 0  0  0  0  0  0  0  0  0  0  0  0
    8.9360   25.3950    8.7340   C 0  0  0  0  0  0  0  0  0  0  0  0
   11.5130   24.4110    2.5520   C 0  0  0  0  0  0  0  0  0  0  0  0
   10.3200   23.6040    2.0830   C 0  0  0  0  0  0  0  0  0  0  0  0
   12.7820   25.3030    4.4560   C 0  0  0  0  0  0  0  0  0  0  0  0
   13.9320   24.3120    4.6850   C 0  0  0  0  0  0  0  0  0  0  0  0
   14.0160   23.8310    6.1350   C 0  0  0  0  0  0  0  0  0  0  0  0
   15.1810   22.8870    6.4560   C 0  0  0  0  0  0  0  0  0  0  0  0
   15.2650   22.7560    7.9780   C 0  0  0  0  0  0  0  0  0  0  0  0
   16.3790   21.8410    8.4250   C 0  0  0  0  0  0  0  0  0  0  0  0
   17.7130   22.1450    8.1520   C 0  0  0  0  0  0  0  0  0  0  0  0
   17.0270   19.8330    9.6040   C 0  0  0  0  0  0  0  0  0  0  0  0
   16.0300   20.6850    9.1320   C 0  0  0  0  0  0  0  0  0  0  0  0
   14.9790   21.5070    5.8020   C 0  0  0  0  0  0  0  0  0  0  0  0
   16.1910   19.5270    5.0220   C 0  0  0  0  0  0  0  0  0  0  0  0
   17.6090   17.7380    4.5580   C 0  0  0  0  0  0  0  0  0  0  0  0
    5.5540   25.1720    2.1490   C 0  0  0  0  0  0  0  0  0  0  0  0
   15.7440   19.0140    3.6240   C 0  0  0  0  0  0  0  0  0  0  0  0
    8.0320   24.5460    2.0640   C 0  0  0  0  0  0  0  0  0  0  0  0
    3.0940   24.9920    2.1330   C 0  0  0  0  0  0  0  0  0  0  0  0
    1.8720   24.9440    2.8110   C 0  0  0  0  0  0  0  0  0  0  0  0
    1.9020   24.9680    4.2130   C 0  0  0  0  0  0  0  0  0  0  0  0
    4.2320   25.0690    4.2470   C 0  0  0  0  0  0  0  0  0  0  0  0
    9.1250   24.1110    2.7380   N 0  0  0  0  0  0  0  0  0  0  0  0
   10.7290   23.9600    6.7590   O 0  0  0  0  0  0  0  0  0  0  0  0
   10.0420   26.1670    6.6910   N 0  0  0  0  0  0  0  0  0  0  0  0
    9.9590   26.3750    8.1290   C 0  0  0  0  0  0  0  0  0  0  0  0
    9.4660   27.8180    8.3590   C 0  0  0  0  0  0  0  0  0  0  0  0
   11.3400   26.2050    8.7790   C 0  0  0  0  0  0  0  0  0  0  0  0
   11.6290   24.5080    4.0130   N 0  0  0  0  0  0  0  0  0  0  0  0
   15.1430   24.9890    4.3710   O 0  0  0  0  0  0  0  0  0  0  0  0
   18.7140   21.2920    8.6110   C 0  0  0  0  0  0  0  0  0  0  0  0
   18.3710   20.1370    9.3370   C 0  0  0  0  0  0  0  0  0  0  0  0
   13.8740   20.9640    5.7880   O 0  0  0  0  0  0  0  0  0  0  0  0
   16.0820   20.9730    5.2500   N 0  0  0  0  0  0  0  0  0  0  0  0
   17.5960   19.0150    5.4040   C 0  0  0  0  0  0  0  0  0  0  0  0
   16.8530   18.0060    3.3020   C 0  0  0  0  0  0  0  0  0  0  0  0
   15.7270   20.1160    2.6030   C 0  0  0  0  0  0  0  0  0  0  0  0
    6.8300   24.9450    2.8330   C 0  0  0  0  0  0  0  0  0  0  0  0
    4.2870   25.0620    2.8540   C 0  0  0  0  0  0  0  0  0  0  0  0
    3.0610   25.0130    4.8690   N 0  0  0  0  0  0  0  0  0  0  0  0
  1  2  1  0  0  0  0
  1 28  1  0  0  0  0
  2  3  1  0  0  0  0
  2 34  1  0  0  0  0
  3 29  2  0  0  0  0
  3 30  1  0  0  0  0
  4 40  1  0  0  0  0
  5 23  2  0  0  0  0
  6 31  1  0  0  0  0
  7  8  1  0  0  0  0
  7 34  1  0  0  0  0
  8 28  1  0  0  0  0
  9 10  1  0  0  0  0
  9 34  1  0  0  0  0
 10 11  1  0  0  0  0
 10 35  1  0  0  0  0
 11 12  1  0  0  0  0
 12 13  1  0  0  0  0
 12 18  1  0  0  0  0
 13 14  1  0  0  0  0
 14 15  2  0  0  0  0
 14 17  1  0  0  0  0
 15 36  1  0  0  0  0
 16 17  2  0  0  0  0
 16 37  1  0  0  0  0
 18 38  2  0  0  0  0
 18 39  1  0  0  0  0
 19 22  1  0  0  0  0
 19 39  1  0  0  0  0
 19 40  1  0  0  0  0
 20 40  1  0  0  0  0
 20 41  1  0  0  0  0
 21 43  1  0  0  0  0
 21 44  1  0  0  0  0
 22 41  1  0  0  0  0
 22 42  1  0  0  0  0
 23 28  1  0  0  0  0
 23 43  1  0  0  0  0
 24 25  2  0  0  0  0
 24 44  1  0  0  0  0
 25 26  1  0  0  0  0
 26 45  2  0  0  0  0
 27 44  2  0  0  0  0
 27 45  1  0  0  0  0
 30 31  1  0  0  0  0
 31 32  1  0  0  0  0
 31 33  1  0  0  0  0
 36 37  2  0  0  0  0
M  END
>  <InstanceId>
2BPV_1IN_B_902

>  <ChemCompId>
1IN

>  <PdbId>
2BPV

>  <ChainId>
B

>  <ResidueNumber>
902

>  <InsertionCode>


>  <Model>
1

>  <AltIds>


>  <MissingHeavyAtoms>
0

>  <ObservedFormula>
C35 N5 O5

>  <Name>
1-[2-HYDROXY-4-(2-HYDROXY-5-METHYL-CYCLOPENTYLCARBAMOYL)5-PHENYL-PENTYL]-4-(3-PYRIDIN-3-YL-PROPIONYL)-PIPERAZINE-2-CARB OXYLIC ACID TERT-BUTYLAMIDE

>  <SystematicName>
(1S,2S)-N-tert-butyl-1-[(2S,4R)-2-hydroxy-5-[[(1S,2R,5S)-2-hydroxy-5-methyl-cyclopentyl]amino]-5-oxo-4-(phenylmethyl)pentyl]-4-(3-pyridin-3-ylpropanoyl)piperazine-2-carboxamide

>  <Synonyms>
L-738,317

>  <Type>
NON-POLYMER

>  <Formula>
C35 H51 N5 O5

>  <MolecularWeight>
621.81

>  <ModifiedDate>
2020-06-17

>  <Parent>


>  <OneLetterCode>


>  <SubcomponentList>


>  <AmbiguousFlag>
N

>  <InChI>
InChI=1S/C35H51N5O5/c1-24-12-14-30(42)32(24)37-33(44)27(19-25-9-6-5-7-10-25)20-28(41)22-39-17-18-40(23-29(39)34(45)38-35(2,3)4)31(43)15-13-26-11-8-16-36-21-26/h5-11,16,21,24,27-30,32,41-42H,12-15,17-20,22-23H2,1-4H3,(H,37,44)(H,38,45)/t24-,27+,28-,29-,30+,32-/m0/s1

>  <InChIKey>
ITUWYDLENJLLBB-FJPQDTJVSA-N

>  <SMILES>
C[C@H]1CC[C@H]([C@H]1NC(=O)[C@H](Cc2ccccc2)C[C@@H](C[N@@]3CCN(C[C@H]3C(=O)NC(C)(C)C)C(=O)CCc4cccnc4)O)O

$$$$
