5X62_SAH_A_501
  RCSB PDB08022003353D
Coordinates from PDB:5X62:A:501 Model:1 without hydrogens
 26 28  0  0  0  0            999 V2000
   18.5120   40.7340  197.4130   N 0  0  0  0  0  0  0  0  0  0  0  0
   18.7030   39.3370  197.8980   C 0  0  0  0  0  0  0  0  0  0  0  0
   17.6150   38.9110  198.8880   C 0  0  0  0  0  0  0  0  0  0  0  0
   16.2190   38.9100  198.2720   C 0  0  0  0  0  0  0  0  0  0  0  0
   15.0000   38.4720  199.4860   S 0  0  0  0  0  0  0  0  0  0  0  0
   18.7570   38.3820  196.7350   C 0  0  0  0  0  0  0  0  0  0  0  0
   18.4360   38.8160  195.6060   O 0  0  0  0  0  0  0  0  0  0  0  0
   19.1240   37.2000  196.9320   O 0  0  0  0  0  0  0  0  0  0  0  0
   14.4370   39.9620  200.2640   C 0  0  0  0  0  0  0  0  0  0  0  0
   15.4740   40.5360  201.2380   C 0  0  0  0  0  0  0  0  0  0  0  0
   15.1190   41.8630  201.6740   O 0  0  0  0  0  0  0  0  0  0  0  0
   15.5330   39.7080  202.5060   C 0  0  0  0  0  0  0  0  0  0  0  0
   16.9140   39.6090  202.8530   O 0  0  0  0  0  0  0  0  0  0  0  0
   14.7680   40.5200  203.5390   C 0  0  0  0  0  0  0  0  0  0  0  0
   15.2180   40.2600  204.8700   O 0  0  0  0  0  0  0  0  0  0  0  0
   15.1300   41.9240  203.1040   C 0  0  0  0  0  0  0  0  0  0  0  0
   14.1740   42.9580  203.5570   N 0  0  0  0  0  0  0  0  0  0  0  0
   12.8310   42.8670  203.5200   C 0  0  0  0  0  0  0  0  0  0  0  0
   12.2580   44.0050  203.9800   N 0  0  0  0  0  0  0  0  0  0  0  0
   13.2560   44.8470  204.3180   C 0  0  0  0  0  0  0  0  0  0  0  0
   13.3410   46.2230  204.8620   C 0  0  0  0  0  0  0  0  0  0  0  0
   12.2020   46.8900  205.1480   N 0  0  0  0  0  0  0  0  0  0  0  0
   14.5640   46.7630  205.0690   N 0  0  0  0  0  0  0  0  0  0  0  0
   15.6860   46.0690  204.7850   C 0  0  0  0  0  0  0  0  0  0  0  0
   15.6820   44.8090  204.2880   N 0  0  0  0  0  0  0  0  0  0  0  0
   14.5170   44.1620  204.0310   C 0  0  0  0  0  0  0  0  0  0  0  0
  1  2  1  0  0  0  0
  2  3  1  0  0  0  0
  2  6  1  0  0  0  0
  3  4  1  0  0  0  0
  4  5  1  0  0  0  0
  5  9  1  0  0  0  0
  6  7  2  0  0  0  0
  6  8  1  0  0  0  0
  9 10  1  0  0  0  0
 10 11  1  0  0  0  0
 10 12  1  0  0  0  0
 11 16  1  0  0  0  0
 12 13  1  0  0  0  0
 12 14  1  0  0  0  0
 14 15  1  0  0  0  0
 14 16  1  0  0  0  0
 16 17  1  0  0  0  0
 17 18  1  0  0  0  0
 17 26  1  0  0  0  0
 18 19  2  0  0  0  0
 19 20  1  0  0  0  0
 20 21  1  0  0  0  0
 20 26  2  0  0  0  0
 21 22  1  0  0  0  0
 21 23  2  0  0  0  0
 23 24  1  0  0  0  0
 24 25  2  0  0  0  0
 25 26  1  0  0  0  0
M  END
>  <InstanceId>
5X62_SAH_A_501

>  <ChemCompId>
SAH

>  <PdbId>
5X62

>  <ChainId>
A

>  <ResidueNumber>
501

>  <InsertionCode>


>  <Model>
1

>  <AltIds>


>  <MissingHeavyAtoms>
0

>  <ObservedFormula>
C14 N6 O5 S

>  <Name>
S-ADENOSYL-L-HOMOCYSTEINE

>  <SystematicName>
(2S)-2-amino-4-[[(2S,3S,4R,5R)-5-(6-aminopurin-9-yl)-3,4-dihydroxy-oxolan-2-yl]methylsulfanyl]butanoic acid

>  <Synonyms>


>  <Type>
L-PEPTIDE LINKING

>  <Formula>
C14 H20 N6 O5 S

>  <MolecularWeight>
384.411

>  <ModifiedDate>
2011-06-04

>  <Parent>
CYS

>  <OneLetterCode>
C

>  <SubcomponentList>


>  <AmbiguousFlag>
N

>  <InChI>
InChI=1S/C14H20N6O5S/c15-6(14(23)24)1-2-26-3-7-9(21)10(22)13(25-7)20-5-19-8-11(16)17-4-18-12(8)20/h4-7,9-10,13,21-22H,1-3,15H2,(H,23,24)(H2,16,17,18)/t6-,7+,9+,10+,13+/m0/s1

>  <InChIKey>
ZJUKTBDSGOFHSH-WFMPWKQPSA-N

>  <SMILES>
c1nc(c2c(n1)n(cn2)[C@H]3[C@@H]([C@@H]([C@H](O3)CSCC[C@@H](C(=O)O)N)O)O)N

$$$$
