4M12_1YZ_A_701
  RCSB PDB08012022283D
Coordinates from PDB:4M12:A:701 Model:1 without hydrogens
 25 27  0  0  0  0            999 V2000
   -4.8520    8.2250   13.2540   N 0  0  0  0  0  0  0  0  0  0  0  0
   -5.9410    7.5450   13.6640   N 0  0  0  0  0  0  0  0  0  0  0  0
   -5.4700    6.6200   14.5570   C 0  0  0  0  0  0  0  0  0  0  0  0
   -4.0450    6.7350   14.6910   C 0  0  0  0  0  0  0  0  0  0  0  0
   -3.6590    7.7730   13.8350   C 0  0  0  0  0  0  0  0  0  0  0  0
   -3.2870    5.9330   15.5370   N 0  0  0  0  0  0  0  0  0  0  0  0
   -1.8990    6.1020   15.6570   C 0  0  0  0  0  0  0  0  0  0  0  0
   -1.2680    5.3260   16.6210   N 0  0  0  0  0  0  0  0  0  0  0  0
   -1.2530    6.8870   14.9540   O 0  0  0  0  0  0  0  0  0  0  0  0
   -6.3310    5.6780   15.2720   C 0  0  0  0  0  0  0  0  0  0  0  0
   -7.6620    5.6490   14.9370   N 0  0  0  0  0  0  0  0  0  0  0  0
   -5.8870    4.9340   16.1540   O 0  0  0  0  0  0  0  0  0  0  0  0
   -4.9620    9.3460   12.3640   C 0  0  0  0  0  0  0  0  0  0  0  0
   -4.2780    9.2990   11.1760   C 0  0  0  0  0  0  0  0  0  0  0  0
   -4.3800   10.3860   10.2800   C 0  0  0  0  0  0  0  0  0  0  0  0
   -5.1510   11.4700   10.5940   C 0  0  0  0  0  0  0  0  0  0  0  0
   -5.7580   10.4690   12.7410   C 0  0  0  0  0  0  0  0  0  0  0  0
   -5.8290   11.5410   11.8370   C 0  0  0  0  0  0  0  0  0  0  0  0
   -6.5650   12.7060   12.1940   C 0  0  0  0  0  0  0  0  0  0  0  0
   -7.2030   12.7920   13.3940   C 0  0  0  0  0  0  0  0  0  0  0  0
   -7.1330   11.6860   14.2930   C 0  0  0  0  0  0  0  0  0  0  0  0
   -6.4320   10.5490   13.9830   C 0  0  0  0  0  0  0  0  0  0  0  0
   -7.7980   11.9020   15.4610   O 0  0  0  0  0  0  0  0  0  0  0  0
   -7.8100   10.8420   16.4030   C 0  0  0  0  0  0  0  0  0  0  0  0
   -8.4840   11.4180   17.6420   C 0  0  0  0  0  0  0  0  0  0  0  0
 15 16  2  0  0  0  0
 15 14  1  0  0  0  0
 16 18  1  0  0  0  0
 14 13  2  0  0  0  0
 18 19  2  0  0  0  0
 18 17  1  0  0  0  0
 19 20  1  0  0  0  0
 13 17  1  0  0  0  0
 13  1  1  0  0  0  0
 17 22  2  0  0  0  0
  1  2  1  0  0  0  0
  1  5  1  0  0  0  0
 20 21  2  0  0  0  0
  2  3  2  0  0  0  0
  5  4  2  0  0  0  0
 22 21  1  0  0  0  0
 21 23  1  0  0  0  0
  3  4  1  0  0  0  0
  3 10  1  0  0  0  0
  4  6  1  0  0  0  0
 11 10  1  0  0  0  0
  9  7  2  0  0  0  0
 10 12  2  0  0  0  0
 23 24  1  0  0  0  0
  6  7  1  0  0  0  0
  7  8  1  0  0  0  0
 24 25  1  0  0  0  0
M  END
>  <InstanceId>
4M12_1YZ_A_701

>  <ChemCompId>
1YZ

>  <PdbId>
4M12

>  <ChainId>
A

>  <ResidueNumber>
701

>  <InsertionCode>


>  <Model>
1

>  <AltIds>


>  <MissingHeavyAtoms>
0

>  <ObservedFormula>
C17 N5 O3

>  <Name>
4-(carbamoylamino)-1-(7-ethoxynaphthalen-1-yl)-1H-pyrazole-3-carboxamide

>  <SystematicName>
4-(aminocarbonylamino)-1-(7-ethoxynaphthalen-1-yl)pyrazole-3-carboxamide

>  <Synonyms>


>  <Type>
NON-POLYMER

>  <Formula>
C17 H17 N5 O3

>  <MolecularWeight>
339.349

>  <ModifiedDate>
2014-03-28

>  <Parent>


>  <OneLetterCode>


>  <SubcomponentList>


>  <AmbiguousFlag>
N

>  <InChI>
InChI=1S/C17H17N5O3/c1-2-25-11-7-6-10-4-3-5-14(12(10)8-11)22-9-13(20-17(19)24)15(21-22)16(18)23/h3-9H,2H2,1H3,(H2,18,23)(H3,19,20,24)

>  <InChIKey>
JGGFBQCPFJAHOH-UHFFFAOYSA-N

>  <SMILES>
CCOc1ccc2cccc(c2c1)n3cc(c(n3)C(=O)N)NC(=O)N

$$$$
