3KYQ_DPV_A_201
  RCSB PDB08012019393D
Coordinates from PDB:3KYQ:A:201 Model:1 without hydrogens
 23 22  0  0  0  0            999 V2000
    6.4720   12.0720   12.0750   N 0  3  0  0  0  0  0  0  0  0  0  0
    5.4030   16.2620    9.7160   P 0  0  0  0  0  0  0  0  0  0  0  0
    4.5880   18.0670   11.5200   C 0  0  0  0  0  0  0  0  0  0  0  0
    3.4230   19.0630   11.4480   C 0  0  0  0  0  0  0  0  0  0  0  0
    2.1620   18.4770   12.0920   C 0  0  0  0  0  0  0  0  0  0  0  0
    5.7720   14.4290   11.6040   C 0  0  0  0  0  0  0  0  0  0  0  0
    6.8120   13.3220   11.3610   C 0  0  0  0  0  0  0  0  0  0  0  0
    6.1250   12.3380   13.4790   C 0  0  0  0  0  0  0  0  0  0  0  0
    7.6420   11.1810   12.0530   C 0  0  0  0  0  0  0  0  0  0  0  0
    5.3520   11.3780   11.4120   C 0  0  0  0  0  0  0  0  0  0  0  0
    1.3610   17.6590   11.0770   C 0  0  0  0  0  0  0  0  0  0  0  0
    0.0200   17.2250   11.6560   C 0  0  0  0  0  0  0  0  0  0  0  0
   -0.3500   15.8370   11.1460   C 0  0  0  0  0  0  0  0  0  0  0  0
   -1.6090   15.3290   11.8440   C 0  0  0  0  0  0  0  0  0  0  0  0
   -2.3170   14.2880   10.9730   C 0  0  0  0  0  0  0  0  0  0  0  0
    4.1290   15.4980    9.5240   O 0  5  0  0  0  0  0  0  0  0  0  0
   -3.5520   13.7460   11.6890   C 0  0  0  0  0  0  0  0  0  0  0  0
   -4.1730   12.5920   10.9080   C 0  0  0  0  0  0  0  0  0  0  0  0
   -5.3090   13.0920   10.0190   C 0  0  0  0  0  0  0  0  0  0  0  0
   -5.4340   12.2180    8.7750   C 0  0  0  0  0  0  0  0  0  0  0  0
    6.3870   16.3420    8.5970   O 0  0  0  0  0  0  0  0  0  0  0  0
    5.0430   17.7890   10.1760   O 0  0  0  0  0  0  0  0  0  0  0  0
    6.1960   15.6590   11.0050   O 0  0  0  0  0  0  0  0  0  0  0  0
  1  7  1  0  0  0  0
  1  8  1  0  0  0  0
  1  9  1  0  0  0  0
  1 10  1  0  0  0  0
  2 16  1  0  0  0  0
  2 21  2  0  0  0  0
  2 22  1  0  0  0  0
  2 23  1  0  0  0  0
  3  4  1  0  0  0  0
  3 22  1  0  0  0  0
  4  5  1  0  0  0  0
  5 11  1  0  0  0  0
  6  7  1  0  0  0  0
  6 23  1  0  0  0  0
 11 12  1  0  0  0  0
 12 13  1  0  0  0  0
 13 14  1  0  0  0  0
 14 15  1  0  0  0  0
 15 17  1  0  0  0  0
 17 18  1  0  0  0  0
 18 19  1  0  0  0  0
 19 20  1  0  0  0  0
M  CHG  2   1   1  16  -1
M  END
>  <InstanceId>
3KYQ_DPV_A_201

>  <ChemCompId>
DPV

>  <PdbId>
3KYQ

>  <ChainId>
A

>  <ResidueNumber>
201

>  <InsertionCode>


>  <Model>
1

>  <AltIds>


>  <MissingHeavyAtoms>
0

>  <ObservedFormula>
C17 N O4 P

>  <Name>
dodecyl 2-(trimethylammonio)ethyl phosphate

>  <SystematicName>
dodecyl 2-(trimethylazaniumyl)ethyl phosphate

>  <Synonyms>
dodecylphosphocholine

>  <Type>
NON-POLYMER

>  <Formula>
C17 H38 N O4 P

>  <MolecularWeight>
351.462

>  <ModifiedDate>
2011-06-04

>  <Parent>


>  <OneLetterCode>


>  <SubcomponentList>


>  <AmbiguousFlag>
N

>  <InChI>
InChI=1S/C17H38NO4P/c1-5-6-7-8-9-10-11-12-13-14-16-21-23(19,20)22-17-15-18(2,3)4/h5-17H2,1-4H3

>  <InChIKey>
QBHFVMDLPTZDOI-UHFFFAOYSA-N

>  <SMILES>
CCCCCCCCCCCCO[P@](=O)([O-])OCC[N+](C)(C)C

$$$$
