3GDT_UP6_A_301
  RCSB PDB08012019063D
Coordinates from PDB:3GDT:A:301 Model:1 without hydrogens
 21 22  0  0  0  0            999 V2000
   58.9610   58.4800   23.7810   N 0  0  0  0  0  0  0  0  0  0  0  0
   58.6240   59.3730   22.7520   C 0  0  0  0  0  0  0  0  0  0  0  0
   57.4620   60.0850   22.9900   N 0  0  0  0  0  0  0  0  0  0  0  0
   56.5610   59.8590   24.0400   C 0  0  0  0  0  0  0  0  0  0  0  0
   56.9410   58.8650   25.0070   C 0  0  0  0  0  0  0  0  0  0  0  0
   58.0980   58.2220   24.8670   N 0  0  0  0  0  0  0  0  0  0  0  0
   59.2690   59.5060   21.7570   O 0  0  0  0  0  0  0  0  0  0  0  0
   55.5420   60.5090   24.0630   O 0  0  0  0  0  0  0  0  0  0  0  0
   60.2230   57.7690   23.7680   C 0  0  0  0  0  0  0  0  0  0  0  0
   60.8840   57.3630   25.0840   C 0  0  0  0  0  0  0  0  0  0  0  0
   61.7720   56.2290   24.6310   C 0  0  0  0  0  0  0  0  0  0  0  0
   60.9310   55.5560   23.5420   C 0  0  0  0  0  0  0  0  0  0  0  0
   61.6480   58.4450   25.6420   O 0  0  0  0  0  0  0  0  0  0  0  0
   62.9780   56.7220   24.0520   O 0  0  0  0  0  0  0  0  0  0  0  0
   60.0700   56.5790   23.0150   O 0  0  0  0  0  0  0  0  0  0  0  0
   60.0480   54.3990   23.9590   C 0  0  0  0  0  0  0  0  0  0  0  0
   59.6330   53.7800   22.7480   O 0  0  0  0  0  0  0  0  0  0  0  0
   59.3600   52.1860   22.6720   P 0  0  0  0  0  0  0  0  0  0  0  0
   60.6240   51.4440   23.0150   O 0  0  0  0  0  0  0  0  0  0  0  0
   58.9000   51.9950   21.2580   O 0  0  0  0  0  0  0  0  0  0  0  0
   58.1530   51.8850   23.6720   O 0  0  0  0  0  0  0  0  0  0  0  0
  1  2  1  0  0  0  0
  1  6  1  0  0  0  0
  1  9  1  0  0  0  0
  2  3  1  0  0  0  0
  2  7  2  0  0  0  0
  3  4  1  0  0  0  0
  4  5  1  0  0  0  0
  4  8  2  0  0  0  0
  5  6  2  0  0  0  0
  9 10  1  0  0  0  0
  9 15  1  0  0  0  0
 10 11  1  0  0  0  0
 10 13  1  0  0  0  0
 11 12  1  0  0  0  0
 11 14  1  0  0  0  0
 12 15  1  0  0  0  0
 12 16  1  0  0  0  0
 16 17  1  0  0  0  0
 17 18  1  0  0  0  0
 18 19  2  0  0  0  0
 18 20  1  0  0  0  0
 18 21  1  0  0  0  0
M  END
>  <InstanceId>
3GDT_UP6_A_301

>  <ChemCompId>
UP6

>  <PdbId>
3GDT

>  <ChainId>
A

>  <ResidueNumber>
301

>  <InsertionCode>


>  <Model>
1

>  <AltIds>


>  <MissingHeavyAtoms>
0

>  <ObservedFormula>
C8 N3 O9 P

>  <Name>
6-AZA URIDINE 5'-MONOPHOSPHATE

>  <SystematicName>
[(2R,3S,4R,5R)-5-(3,5-dioxo-1,2,4-triazin-2-yl)-3,4-dihydroxy-oxolan-2-yl]methyl dihydrogen phosphate

>  <Synonyms>
6-AZA-UMP

>  <Type>
NON-POLYMER

>  <Formula>
C8 H12 N3 O9 P

>  <MolecularWeight>
325.169

>  <ModifiedDate>
2020-06-17

>  <Parent>


>  <OneLetterCode>


>  <SubcomponentList>


>  <AmbiguousFlag>
N

>  <InChI>
InChI=1S/C8H12N3O9P/c12-4-1-9-11(8(15)10-4)7-6(14)5(13)3(20-7)2-19-21(16,17)18/h1,3,5-7,13-14H,2H2,(H,10,12,15)(H2,16,17,18)/t3-,5-,6-,7-/m1/s1

>  <InChIKey>
LRVZOSYMNMNQFR-SHUUEZRQSA-N

>  <SMILES>
C1=NN(C(=O)NC1=O)[C@H]2[C@@H]([C@@H]([C@H](O2)COP(=O)(O)O)O)O

$$$$
