2WL0_5AH_A_1100
  RCSB PDB08012018093D
Coordinates from PDB:2WL0:A:1100 Model:1 without hydrogens
 51 55  0  0  0  0            999 V2000
   16.8060   18.1560    2.3170   C 0  0  0  0  0  0  0  0  0  0  0  0
   18.4890   17.2910   12.2960   C 0  0  0  0  0  0  0  0  0  0  0  0
   18.1060   18.3770   11.5420   N 0  0  0  0  0  0  0  0  0  0  0  0
   16.9770   18.3270   10.6660   C 0  0  0  0  0  0  0  0  0  0  0  0
   16.2470   17.1030   10.5940   C 0  0  0  0  0  0  0  0  0  0  0  0
   16.6630   16.0000   11.3830   C 0  0  0  0  0  0  0  0  0  0  0  0
   17.7970   16.1130   12.2350   C 0  0  0  0  0  0  0  0  0  0  0  0
   11.7550   23.8300    4.1820   C 0  0  0  0  0  0  0  0  0  0  0  0
   12.9560   22.9290    4.6260   C 0  0  0  0  0  0  0  0  0  0  0  0
   14.0340   23.6450    5.4980   C 0  0  0  0  0  0  0  0  0  0  0  0
   12.2800   25.1060    3.7380   O 0  0  0  0  0  0  0  0  0  0  0  0
   10.9850   23.1630    2.9670   C 0  0  0  0  0  0  0  0  0  0  0  0
    9.5900   23.7680    2.6200   C 0  0  0  0  0  0  0  0  0  0  0  0
    9.4930   25.0530    2.0030   C 0  0  0  0  0  0  0  0  0  0  0  0
    8.2240   25.6130    1.6900   C 0  0  0  0  0  0  0  0  0  0  0  0
    7.0310   24.8970    1.9890   C 0  0  0  0  0  0  0  0  0  0  0  0
    7.1130   23.6130    2.6040   C 0  0  0  0  0  0  0  0  0  0  0  0
    8.3830   23.0510    2.9160   C 0  0  0  0  0  0  0  0  0  0  0  0
   10.7310   24.0490    5.3130   C 0  0  0  0  0  0  0  0  0  0  0  0
   10.1090   25.2590    5.3760   N 0  0  0  0  0  0  0  0  0  0  0  0
    9.0900   25.5530    6.3960   C 0  0  0  0  0  0  0  0  0  0  0  0
    7.9470   26.5470    5.9800   C 0  0  0  0  0  0  0  0  0  0  0  0
    8.3530   27.5190    4.9800   O 0  0  0  0  0  0  0  0  0  0  0  0
    7.5120   27.3160    7.2550   C 0  0  0  0  0  0  0  0  0  0  0  0
    8.7390   27.1870    8.1510   C 0  0  0  0  0  0  0  0  0  0  0  0
    9.0300   27.9220    9.3300   C 0  0  0  0  0  0  0  0  0  0  0  0
   10.2430   27.6390   10.0210   C 0  0  0  0  0  0  0  0  0  0  0  0
   11.1430   26.6410    9.5350   C 0  0  0  0  0  0  0  0  0  0  0  0
   10.8430   25.9120    8.3590   C 0  0  0  0  0  0  0  0  0  0  0  0
    9.6270   26.1980    7.6670   C 0  0  0  0  0  0  0  0  0  0  0  0
   10.4790   23.1520    6.1020   O 0  0  0  0  0  0  0  0  0  0  0  0
   14.7760   22.6740    6.3390   N 0  0  0  0  0  0  0  0  0  0  0  0
   15.5140   23.1240    7.5420   C 0  0  0  0  0  0  0  0  0  0  0  0
   15.9070   21.8880    8.3570   C 0  0  0  0  0  0  0  0  0  0  0  0
   14.9000   21.1220    8.9980   C 0  0  0  0  0  0  0  0  0  0  0  0
   15.2420   19.9670    9.7460   C 0  0  0  0  0  0  0  0  0  0  0  0
   16.6060   19.5510    9.8710   C 0  0  0  0  0  0  0  0  0  0  0  0
   17.6180   20.3290    9.2280   C 0  0  0  0  0  0  0  0  0  0  0  0
   17.2710   21.4880    8.4720   C 0  0  0  0  0  0  0  0  0  0  0  0
   15.7120   21.8210    5.4810   N 0  0  0  0  0  0  0  0  0  0  0  0
   15.3910   20.5260    5.1830   C 0  0  0  0  0  0  0  0  0  0  0  0
   16.3410   19.6660    4.3340   C 0  0  0  0  0  0  0  0  0  0  0  0
   17.0050   18.8370    5.3350   N 0  0  0  0  0  0  0  0  0  0  0  0
   18.3010   19.0260    5.6440   C 0  0  0  0  0  0  0  0  0  0  0  0
   18.7090   18.1500    6.5930   O 0  0  0  0  0  0  0  0  0  0  0  0
   20.0890   18.2620    7.0020   C 0  0  0  0  0  0  0  0  0  0  0  0
   19.0130   19.8850    5.1270   O 0  0  0  0  0  0  0  0  0  0  0  0
   15.6710   18.7880    3.1860   C 0  0  0  0  0  0  0  0  0  0  0  0
   14.7960   17.6070    3.7220   C 0  0  0  0  0  0  0  0  0  0  0  0
   14.7790   19.6850    2.2690   C 0  0  0  0  0  0  0  0  0  0  0  0
   14.3490   20.0370    5.6040   O 0  0  0  0  0  0  0  0  0  0  0  0
  1 48  1  0  0  0  0
  2  3  2  0  0  0  0
  2  7  1  0  0  0  0
  3  4  1  0  0  0  0
  4  5  2  0  0  0  0
  4 37  1  0  0  0  0
  5  6  1  0  0  0  0
  6  7  2  0  0  0  0
  8  9  1  0  0  0  0
  8 11  1  0  0  0  0
  8 12  1  0  0  0  0
  8 19  1  0  0  0  0
  9 10  1  0  0  0  0
 10 32  1  0  0  0  0
 12 13  1  0  0  0  0
 13 14  1  0  0  0  0
 13 18  2  0  0  0  0
 14 15  2  0  0  0  0
 15 16  1  0  0  0  0
 16 17  2  0  0  0  0
 17 18  1  0  0  0  0
 19 20  1  0  0  0  0
 19 31  2  0  0  0  0
 20 21  1  0  0  0  0
 21 22  1  0  0  0  0
 21 30  1  0  0  0  0
 22 23  1  0  0  0  0
 22 24  1  0  0  0  0
 24 25  1  0  0  0  0
 25 26  2  0  0  0  0
 25 30  1  0  0  0  0
 26 27  1  0  0  0  0
 27 28  2  0  0  0  0
 28 29  1  0  0  0  0
 29 30  2  0  0  0  0
 32 33  1  0  0  0  0
 32 40  1  0  0  0  0
 33 34  1  0  0  0  0
 34 35  1  0  0  0  0
 34 39  2  0  0  0  0
 35 36  2  0  0  0  0
 36 37  1  0  0  0  0
 37 38  2  0  0  0  0
 38 39  1  0  0  0  0
 40 41  1  0  0  0  0
 41 42  1  0  0  0  0
 41 51  2  0  0  0  0
 42 43  1  0  0  0  0
 42 48  1  0  0  0  0
 43 44  1  0  0  0  0
 44 45  1  0  0  0  0
 44 47  2  0  0  0  0
 45 46  1  0  0  0  0
 48 49  1  0  0  0  0
 48 50  1  0  0  0  0
M  END
>  <InstanceId>
2WL0_5AH_A_1100

>  <ChemCompId>
5AH

>  <PdbId>
2WL0

>  <ChainId>
A

>  <ResidueNumber>
1100

>  <InsertionCode>


>  <Model>
1

>  <AltIds>


>  <MissingHeavyAtoms>
0

>  <ObservedFormula>
C40 N5 O6

>  <Name>
METHYL [(1S)-1-({2-[(3S)-3-BENZYL-3-HYDROXY-4-{[(1S,2R)-2-HYDROXY-2,3-DIHYDRO-1H-INDEN-1-YL]AMINO}-4-OXOBUTYL]-2-(4-PYRIDIN-2-YLBENZYL)HYDRAZINO}CARBONYL)-2,2-DIMETHYLPROPYL]CARBAMATE

>  <SystematicName>
methyl N-[(2S)-1-[2-[(3S)-3-hydroxy-4-[[(1S,2R)-2-hydroxy-2,3-dihydro-1H-inden-1-yl]amino]-4-oxo-3-(phenylmethyl)butyl]-2-[(4-pyridin-2-ylphenyl)methyl]hydrazinyl]-3,3-dimethyl-1-oxo-butan-2-yl]carbamate

>  <Synonyms>


>  <Type>
non-polymer

>  <Formula>
C40 H47 N5 O6

>  <MolecularWeight>
693.831

>  <ModifiedDate>
2011-06-04

>  <Parent>


>  <OneLetterCode>


>  <SubcomponentList>


>  <AmbiguousFlag>
N

>  <InChI>
InChI=1S/C40H47N5O6/c1-39(2,3)35(43-38(49)51-4)36(47)44-45(26-28-17-19-29(20-18-28)32-16-10-11-22-41-32)23-21-40(50,25-27-12-6-5-7-13-27)37(48)42-34-31-15-9-8-14-30(31)24-33(34)46/h5-20,22,33-35,46,50H,21,23-26H2,1-4H3,(H,42,48)(H,43,49)(H,44,47)/t33-,34+,35-,40-/m1/s1

>  <InChIKey>
AWOPQBWUWCOWJO-UKVDXBKXSA-N

>  <SMILES>
CC(C)(C)[C@@H](C(=O)N[N@](CC[C@@](Cc1ccccc1)(C(=O)N[C@H]2c3ccccc3C[C@H]2O)O)Cc4ccc(cc4)c5ccccn5)NC(=O)OC

$$$$
