4PP0_OP1_A_301
  RCSB PDB08012022543D
Coordinates from PDB:4PP0:A:301 Model:1 without hydrogens
 20 20  0  0  0  0            999 V2000
   17.3520   -5.7350   -4.1970   C 0  0  0  0  0  0  0  0  0  0  0  0
   16.2260   -6.6790   -4.5640   C 0  0  0  0  0  0  0  0  0  0  0  0
   16.1710   -7.8490   -4.1220   O 0  0  0  0  0  0  0  0  0  0  0  0
   18.2320   -5.5030   -5.4170   C 0  0  0  0  0  0  0  0  0  0  0  0
   18.6640   -6.7800   -6.1080   C 0  0  0  0  0  0  0  0  0  0  0  0
   19.4090   -6.5160   -7.3810   C 0  0  0  0  0  0  0  0  0  0  0  0
   20.0420   -7.7260   -7.8790   N 0  0  0  0  0  0  0  0  0  0  0  0
   20.8370   -7.7080   -9.0770   C 0  0  0  0  0  0  0  0  0  0  0  0
   20.9490   -6.6280   -9.8300   N 0  0  0  0  0  0  0  0  0  0  0  0
   21.4140   -8.8610   -9.4340   N 0  0  0  0  0  0  0  0  0  0  0  0
   18.1000   -6.2330   -3.0330   N 0  0  0  0  0  0  0  0  0  0  0  0
   19.3530   -6.9160   -2.7800   C 0  0  0  0  0  0  0  0  0  0  0  0
   19.2660   -7.4820   -1.4120   C 0  0  0  0  0  0  0  0  0  0  0  0
   18.2200   -6.7470   -0.6590   C 0  0  0  0  0  0  0  0  0  0  0  0
   17.5110   -6.0650   -1.7550   C 0  0  0  0  0  0  0  0  0  0  0  0
   16.2470   -5.6350   -1.6340   O 0  0  0  0  0  0  0  0  0  0  0  0
   20.5200   -5.9820   -2.8650   C 0  0  0  0  0  0  0  0  0  0  0  0
   20.3950   -4.7390   -3.1340   O 0  0  0  0  0  0  0  0  0  0  0  0
   21.6880   -6.4260   -2.6070   O 0  0  0  0  0  0  0  0  0  0  0  0
   15.3360   -6.2430   -5.3320   O 0  0  0  0  0  0  0  0  0  0  0  0
 14 13  1  0  0  0  0
 14 15  1  0  0  0  0
 16 15  2  0  0  0  0
 13 12  1  0  0  0  0
 15 11  1  0  0  0  0
 18 17  2  0  0  0  0
 17 19  1  0  0  0  0
 17 12  1  0  0  0  0
 12 11  1  0  0  0  0
 11  1  1  0  0  0  0
  1  2  1  0  0  0  0
  1  4  1  0  0  0  0
 20  2  2  0  0  0  0
  2  3  1  0  0  0  0
  4  5  1  0  0  0  0
  5  6  1  0  0  0  0
  6  7  1  0  0  0  0
  7  8  1  0  0  0  0
  8  9  2  0  0  0  0
  8 10  1  0  0  0  0
M  END
>  <InstanceId>
4PP0_OP1_A_301

>  <ChemCompId>
OP1

>  <PdbId>
4PP0

>  <ChainId>
A

>  <ResidueNumber>
301

>  <InsertionCode>


>  <Model>
1

>  <AltIds>


>  <MissingHeavyAtoms>
0

>  <ObservedFormula>
C11 N4 O5

>  <Name>
1-[(1S)-4-carbamimidamido-1-carboxybutyl]-5-oxo-D-proline

>  <SystematicName>
(2R)-1-[(2S)-5-carbamimidamido-1-oxidanyl-1-oxidanylidene-pentan-2-yl]-5-oxidanylidene-pyrrolidine-2-carboxylic acid

>  <Synonyms>
Pyronopaline

>  <Type>
NON-POLYMER

>  <Formula>
C11 H18 N4 O5

>  <MolecularWeight>
286.284

>  <ModifiedDate>
2020-06-17

>  <Parent>


>  <OneLetterCode>


>  <SubcomponentList>


>  <AmbiguousFlag>
N

>  <InChI>
InChI=1S/C11H18N4O5/c12-11(13)14-5-1-2-6(9(17)18)15-7(10(19)20)3-4-8(15)16/h6-7H,1-5H2,(H,17,18)(H,19,20)(H4,12,13,14)/t6-,7+/m0/s1

>  <InChIKey>
GTRMYGUJZGMZEF-NKWVEPMBSA-N

>  <SMILES>
[H]/N=C(\N)/NCCC[C@@H](C(=O)O)N1[C@H](CCC1=O)C(=O)O

$$$$
