2NMZ_ROC_B_401
  RCSB PDB08012017343D
Coordinates from PDB:2NMZ:B:401 Model:1 without hydrogens
 49 53  0  0  0  0            999 V2000
   19.4420   35.7070   18.0870   C 0  0  0  0  0  0  0  0  0  0  0  0
   18.8080   35.1930   19.1060   O 0  0  0  0  0  0  0  0  0  0  0  0
   20.5190   37.5130   16.8160   N 0  0  0  0  0  0  0  0  0  0  0  0
   20.3810   36.8550   18.0380   C 0  0  0  0  0  0  0  0  0  0  0  0
   21.0610   37.3250   19.1550   C 0  0  0  0  0  0  0  0  0  0  0  0
   21.9900   38.3620   19.0420   C 0  0  0  0  0  0  0  0  0  0  0  0
   22.8740   40.2130   17.7490   C 0  0  0  0  0  0  0  0  0  0  0  0
   22.8750   40.9410   16.5830   C 0  0  0  0  0  0  0  0  0  0  0  0
   22.2200   40.4090   15.5010   C 0  0  0  0  0  0  0  0  0  0  0  0
   21.5670   39.2210   15.4910   C 0  0  0  0  0  0  0  0  0  0  0  0
   22.0520   39.0840   17.8470   C 0  0  0  0  0  0  0  0  0  0  0  0
   21.3480   38.6040   16.7390   C 0  0  0  0  0  0  0  0  0  0  0  0
   19.1240   35.1770   16.9000   N 0  0  0  0  0  0  0  0  0  0  0  0
   18.3220   33.9500   16.7130   C 0  0  0  0  0  0  0  0  0  0  0  0
   19.1400   32.9980   15.8530   C 0  0  0  0  0  0  0  0  0  0  0  0
   19.1080   33.1340   14.6100   O 0  0  0  0  0  0  0  0  0  0  0  0
   16.9670   34.1710   16.1770   C 0  0  0  0  0  0  0  0  0  0  0  0
   16.2190   35.0510   17.1230   C 0  0  0  0  0  0  0  0  0  0  0  0
   15.9560   36.2410   16.8850   O 0  0  0  0  0  0  0  0  0  0  0  0
   15.8500   34.5260   18.1580   N 0  0  0  0  0  0  0  0  0  0  0  0
   20.1470   29.7160   16.0930   C 0  0  0  0  0  0  0  0  0  0  0  0
   20.3780   29.4140   17.4620   O 0  0  0  0  0  0  0  0  0  0  0  0
   20.6840   31.1000   15.7290   C 0  0  0  0  0  0  0  0  0  0  0  0
   19.8940   32.0840   16.4740   N 0  0  0  0  0  0  0  0  0  0  0  0
   22.1470   31.3120   16.0740   C 0  0  0  0  0  0  0  0  0  0  0  0
   22.5950   32.7250   16.1290   C 0  0  0  0  0  0  0  0  0  0  0  0
   22.8400   33.4010   14.9200   C 0  0  0  0  0  0  0  0  0  0  0  0
   22.7840   33.3930   17.3260   C 0  0  0  0  0  0  0  0  0  0  0  0
   23.2900   34.6910   14.9660   C 0  0  0  0  0  0  0  0  0  0  0  0
   23.1740   34.7100   17.3230   C 0  0  0  0  0  0  0  0  0  0  0  0
   23.4750   35.3600   16.1490   C 0  0  0  0  0  0  0  0  0  0  0  0
   19.8250   28.6180   13.9350   N 0  0  0  0  0  0  0  0  0  0  0  0
   20.5760   28.5920   15.1630   C 0  0  0  0  0  0  0  0  0  0  0  0
   20.5310   28.0220   12.7960   C 0  0  0  0  0  0  0  0  0  0  0  0
   21.8210   28.7490   12.3920   C 0  0  0  0  0  0  0  0  0  0  0  0
   21.7120   29.9440   12.1960   O 0  0  0  0  0  0  0  0  0  0  0  0
   19.7080   28.1670   11.5340   C 0  0  0  0  0  0  0  0  0  0  0  0
   18.3780   27.4230   11.6980   C 0  0  0  0  0  0  0  0  0  0  0  0
   17.4920   27.6600   10.4740   C 0  0  0  0  0  0  0  0  0  0  0  0
   17.0860   29.1530   10.3250   C 0  0  0  0  0  0  0  0  0  0  0  0
   16.1960   29.4130   11.5460   C 0  0  0  0  0  0  0  0  0  0  0  0
   17.1140   29.3220   12.7320   C 0  0  0  0  0  0  0  0  0  0  0  0
   17.6670   27.9340   12.9730   C 0  0  0  0  0  0  0  0  0  0  0  0
   18.5950   27.8430   14.1640   C 0  0  0  0  0  0  0  0  0  0  0  0
   22.8690   27.9140   12.2830   N 0  0  0  0  0  0  0  0  0  0  0  0
   24.2190   28.2970   11.8940   C 0  0  0  0  0  0  0  0  0  0  0  0
   25.0000   27.0040   11.7370   C 0  0  0  0  0  0  0  0  0  0  0  0
   24.4880   29.4030   12.7460   C 0  0  0  0  0  0  0  0  0  0  0  0
   24.1310   29.0940   10.5730   C 0  0  0  0  0  0  0  0  0  0  0  0
  2  1  2  0  0  0  0
  1  4  1  0  0  0  0
  3  4  2  0  0  0  0
  3 12  1  0  0  0  0
  4  5  1  0  0  0  0
  5  6  2  0  0  0  0
  6 11  1  0  0  0  0
 11  7  2  0  0  0  0
 11 12  1  0  0  0  0
  7  8  1  0  0  0  0
  8  9  2  0  0  0  0
  9 10  1  0  0  0  0
 10 12  2  0  0  0  0
 13 14  1  0  0  0  0
 14 15  1  0  0  0  0
 14 17  1  0  0  0  0
 15 16  2  0  0  0  0
 17 18  1  0  0  0  0
 18 19  2  0  0  0  0
 18 20  1  0  0  0  0
 21 22  1  0  0  0  0
 21 23  1  0  0  0  0
 23 24  1  0  0  0  0
 23 25  1  0  0  0  0
 25 26  1  0  0  0  0
 26 27  2  0  0  0  0
 26 28  1  0  0  0  0
 27 29  1  0  0  0  0
 28 30  2  0  0  0  0
 29 31  2  0  0  0  0
 30 31  1  0  0  0  0
 32 33  1  0  0  0  0
 32 34  1  0  0  0  0
 32 44  1  0  0  0  0
 34 35  1  0  0  0  0
 34 37  1  0  0  0  0
 35 36  2  0  0  0  0
 37 38  1  0  0  0  0
 38 39  1  0  0  0  0
 38 43  1  0  0  0  0
 39 40  1  0  0  0  0
 40 41  1  0  0  0  0
 41 42  1  0  0  0  0
 42 43  1  0  0  0  0
 43 44  1  0  0  0  0
 45 46  1  0  0  0  0
 46 47  1  0  0  0  0
 46 48  1  0  0  0  0
 46 49  1  0  0  0  0
  1 13  1  0  0  0  0
 15 24  1  0  0  0  0
 21 33  1  0  0  0  0
 35 45  1  0  0  0  0
M  END
>  <InstanceId>
2NMZ_ROC_B_401

>  <ChemCompId>
ROC

>  <PdbId>
2NMZ

>  <ChainId>
B

>  <ResidueNumber>
401

>  <InsertionCode>


>  <Model>
1

>  <AltIds>


>  <MissingHeavyAtoms>
0

>  <ObservedFormula>
C38 N6 O5

>  <Name>
(2S)-N-[(2S,3R)-4-[(2S,3S,4aS,8aS)-3-(tert-butylcarbamoyl)-3,4,4a,5,6,7,8,8a-octahydro-1H-isoquinolin-2-yl]-3-hydroxy-1 -phenyl-butan-2-yl]-2-(quinolin-2-ylcarbonylamino)butanediamide

>  <SystematicName>
(2S)-N-[(2S,3R)-4-[(2S,3S,4aS,8aS)-3-(tert-butylcarbamoyl)-3,4,4a,5,6,7,8,8a-octahydro-1H-isoquinolin-2-yl]-3-hydroxy-1-phenyl-butan-2-yl]-2-(quinolin-2-ylcarbonylamino)butanediamide

>  <Synonyms>
Fortovase; SAQUINAVIR; RO 31-8959

>  <Type>
peptide-like

>  <Formula>
C38 H50 N6 O5

>  <MolecularWeight>
670.841

>  <ModifiedDate>
2020-07-02

>  <Parent>


>  <OneLetterCode>


>  <SubcomponentList>
QNC ASN HP0 NTB

>  <AmbiguousFlag>
N

>  <InChI>
InChI=1S/C38H50N6O5/c1-38(2,3)43-37(49)32-20-26-14-7-8-15-27(26)22-44(32)23-33(45)30(19-24-11-5-4-6-12-24)41-36(48)31(21-34(39)46)42-35(47)29-18-17-25-13-9-10-16-28(25)40-29/h4-6,9-13,16-18,26-27,30-33,45H,7-8,14-15,19-23H2,1-3H3,(H2,39,46)(H,41,48)(H,42,47)(H,43,49)/t26-,27+,30-,31-,32-,33+/m0/s1

>  <InChIKey>
QWAXKHKRTORLEM-UGJKXSETSA-N

>  <SMILES>
CC(C)(C)NC(=O)[C@@H]1C[C@@H]2CCCC[C@@H]2C[N@]1C[C@H]([C@H](Cc3ccccc3)NC(=O)[C@H](CC(=O)N)NC(=O)c4ccc5ccccc5n4)O

$$$$
