2IKO_7IG_A_601
  RCSB PDB08012017133D
Coordinates from PDB:2IKO:A:601 Model:1 without hydrogens
 26 28  0  0  0  0            999 V2000
  -10.6750   27.5920  -34.9490   C 0  0  0  0  0  0  0  0  0  0  0  0
   -9.6280   28.0920  -34.2470   N 0  0  0  0  0  0  0  0  0  0  0  0
   -9.4740   27.8010  -32.9260   C 0  0  0  0  0  0  0  0  0  0  0  0
  -10.3490   27.0210  -32.2540   N 0  0  0  0  0  0  0  0  0  0  0  0
  -11.4310   26.4480  -32.8330   C 0  0  0  0  0  0  0  0  0  0  0  0
  -11.6750   26.7170  -34.2630   C 0  0  0  0  0  0  0  0  0  0  0  0
  -10.8030   27.8930  -36.2590   N 0  0  0  0  0  0  0  0  0  0  0  0
   -8.4280   28.3300  -32.2490   N 0  0  0  0  0  0  0  0  0  0  0  0
  -12.3320   25.5720  -31.9970   C 0  0  0  0  0  0  0  0  0  0  0  0
  -11.7550   24.1820  -31.8960   C 0  0  0  0  0  0  0  0  0  0  0  0
  -13.3060   24.2540  -36.5100   C 0  0  0  0  0  0  0  0  0  0  0  0
  -12.4060   24.9870  -35.7530   C 0  0  0  0  0  0  0  0  0  0  0  0
  -12.8070   26.0850  -35.0030   C 0  0  0  0  0  0  0  0  0  0  0  0
  -14.1460   26.4810  -35.0040   C 0  0  0  0  0  0  0  0  0  0  0  0
  -15.0620   25.7490  -35.7700   C 0  0  0  0  0  0  0  0  0  0  0  0
  -14.6460   24.6320  -36.5210   C 0  0  0  0  0  0  0  0  0  0  0  0
  -15.5390   23.9210  -37.2610   N 0  0  0  0  0  0  0  0  0  0  0  0
  -14.3550   22.3330  -41.6920   C 0  0  0  0  0  0  0  0  0  0  0  0
  -14.7750   22.0920  -40.3950   C 0  0  0  0  0  0  0  0  0  0  0  0
  -14.6630   23.0830  -39.4340   C 0  0  0  0  0  0  0  0  0  0  0  0
  -14.1300   24.3400  -39.7850   C 0  0  0  0  0  0  0  0  0  0  0  0
  -13.7210   24.5900  -41.0940   C 0  0  0  0  0  0  0  0  0  0  0  0
  -13.8320   23.5790  -42.0440   C 0  0  0  0  0  0  0  0  0  0  0  0
  -14.4690   21.3530  -42.6100   F 0  0  0  0  0  0  0  0  0  0  0  0
  -15.1600   22.7420  -38.0430   C 0  0  0  0  0  0  0  0  0  0  0  0
  -13.2040   25.7960  -41.4360   F 0  0  0  0  0  0  0  0  0  0  0  0
  1  2  2  0  0  0  0
  1  6  1  0  0  0  0
  1  7  1  0  0  0  0
  2  3  1  0  0  0  0
  3  4  2  0  0  0  0
  3  8  1  0  0  0  0
  4  5  1  0  0  0  0
  5  6  2  0  0  0  0
  5  9  1  0  0  0  0
  6 13  1  0  0  0  0
  9 10  1  0  0  0  0
 11 12  1  0  0  0  0
 11 16  2  0  0  0  0
 12 13  2  0  0  0  0
 13 14  1  0  0  0  0
 14 15  2  0  0  0  0
 15 16  1  0  0  0  0
 16 17  1  0  0  0  0
 17 25  1  0  0  0  0
 18 19  1  0  0  0  0
 18 23  2  0  0  0  0
 18 24  1  0  0  0  0
 19 20  2  0  0  0  0
 20 21  1  0  0  0  0
 20 25  1  0  0  0  0
 21 22  2  0  0  0  0
 22 23  1  0  0  0  0
 22 26  1  0  0  0  0
M  END
>  <InstanceId>
2IKO_7IG_A_601

>  <ChemCompId>
7IG

>  <PdbId>
2IKO

>  <ChainId>
A

>  <ResidueNumber>
601

>  <InsertionCode>


>  <Model>
1

>  <AltIds>


>  <MissingHeavyAtoms>
0

>  <ObservedFormula>
C19 N5 F2

>  <Name>
5-{4-[(3,5-DIFLUOROBENZYL)AMINO]PHENYL}-6-ETHYLPYRIMIDINE-2,4-DIAMINE

>  <SystematicName>
5-[4-[(3,5-difluorophenyl)methylamino]phenyl]-6-ethyl-pyrimidine-2,4-diamine

>  <Synonyms>


>  <Type>
NON-POLYMER

>  <Formula>
C19 H19 F2 N5

>  <MolecularWeight>
355.384

>  <ModifiedDate>
2011-06-04

>  <Parent>


>  <OneLetterCode>


>  <SubcomponentList>


>  <AmbiguousFlag>
N

>  <InChI>
InChI=1S/C19H19F2N5/c1-2-16-17(18(22)26-19(23)25-16)12-3-5-15(6-4-12)24-10-11-7-13(20)9-14(21)8-11/h3-9,24H,2,10H2,1H3,(H4,22,23,25,26)

>  <InChIKey>
SRRWXMSVQYQCRX-UHFFFAOYSA-N

>  <SMILES>
CCc1c(c(nc(n1)N)N)c2ccc(cc2)NCc3cc(cc(c3)F)F

$$$$
