4ARW_HNR_A_400
  RCSB PDB08012021083D
Coordinates from PDB:4ARW:A:400 Model:1 without hydrogens
 24 25  0  0  0  0            999 V2000
   37.7780    7.8440   12.3900   C 0  0  0  0  0  0  0  0  0  0  0  0
   38.6000    6.6560   11.8400   C 0  0  0  0  0  0  0  0  0  0  0  0
   37.9530    6.0190   10.6220   C 0  0  0  0  0  0  0  0  0  0  0  0
   38.8280    4.9440    9.9880   C 0  0  0  0  0  0  0  0  0  0  0  0
   38.0670    3.6980   10.0090   N 0  0  0  0  0  0  0  0  0  0  0  0
   37.0950    3.4440    9.0190   C 0  0  0  0  0  0  0  0  0  0  0  0
   36.8890    4.3580    8.0690   N 0  0  0  0  0  0  0  0  0  0  0  0
   38.3210    2.7720   11.0270   C 0  0  0  0  0  0  0  0  0  0  0  0
   39.1730    2.9960   11.8850   O 0  0  0  0  0  0  0  0  0  0  0  0
   37.6040    1.6060   11.0740   N 0  0  0  0  0  0  0  0  0  0  0  0
   36.6290    1.3410   10.1230   C 0  0  0  0  0  0  0  0  0  0  0  0
   36.0240    0.2750   10.2440   O 0  0  0  0  0  0  0  0  0  0  0  0
   36.3550    2.2530    9.0800   C 0  0  0  0  0  0  0  0  0  0  0  0
   35.4230    1.9550    8.1690   N 0  0  0  0  0  0  0  0  0  0  0  0
   35.7470    0.9150    7.1670   C 0  0  0  0  0  0  0  0  0  0  0  0
   33.8990    2.5790    8.2590   S 0  0  0  0  0  0  0  0  0  0  0  0
   33.9420    4.0020    8.4390   O 0  0  0  0  0  0  0  0  0  0  0  0
   33.0650    2.2200    7.0750   O 0  0  0  0  0  0  0  0  0  0  0  0
   33.1570    1.8500    9.6770   C 0  0  0  0  0  0  0  0  0  0  0  0
   33.4520    2.3140   10.9400   C 0  0  0  0  0  0  0  0  0  0  0  0
   32.8430    1.7320   12.0490   C 0  0  0  0  0  0  0  0  0  0  0  0
   31.9490    0.6780   11.9070   C 0  0  0  0  0  0  0  0  0  0  0  0
   31.6800    0.2120   10.6400   C 0  0  0  0  0  0  0  0  0  0  0  0
   32.2680    0.7990    9.5340   C 0  0  0  0  0  0  0  0  0  0  0  0
  1  2  1  0  0  0  0
  2  3  1  0  0  0  0
  3  4  1  0  0  0  0
  4  5  1  0  0  0  0
  5  6  1  0  0  0  0
  5  8  1  0  0  0  0
  6  7  1  0  0  0  0
  6 13  2  0  0  0  0
  8  9  2  0  0  0  0
  8 10  1  0  0  0  0
 10 11  1  0  0  0  0
 11 12  2  0  0  0  0
 11 13  1  0  0  0  0
 13 14  1  0  0  0  0
 14 15  1  0  0  0  0
 14 16  1  0  0  0  0
 16 17  2  0  0  0  0
 16 18  2  0  0  0  0
 16 19  1  0  0  0  0
 19 20  1  0  0  0  0
 19 24  2  0  0  0  0
 20 21  2  0  0  0  0
 21 22  1  0  0  0  0
 22 23  2  0  0  0  0
 23 24  1  0  0  0  0
M  END
>  <InstanceId>
4ARW_HNR_A_400

>  <ChemCompId>
HNR

>  <PdbId>
4ARW

>  <ChainId>
A

>  <ResidueNumber>
400

>  <InsertionCode>


>  <Model>
1

>  <AltIds>


>  <MissingHeavyAtoms>
0

>  <ObservedFormula>
C15 N4 O4 S

>  <Name>
N-(6-AMINO-1-BUTYL-2,4-DIOXO-1,2,3,4-TETRAHYDROPYRIMIDIN-5-YL)-N-METHYL-BENZENESULFONAMIDE

>  <SystematicName>
N-[6-azanyl-1-butyl-2,4-bis(oxidanylidene)pyrimidin-5-yl]-N-methyl-benzenesulfonamide

>  <Synonyms>


>  <Type>
non-polymer

>  <Formula>
C15 H20 N4 O4 S

>  <MolecularWeight>
352.409

>  <ModifiedDate>
2014-09-05

>  <Parent>


>  <OneLetterCode>


>  <SubcomponentList>


>  <AmbiguousFlag>
N

>  <InChI>
InChI=1S/C15H20N4O4S/c1-3-4-10-19-13(16)12(14(20)17-15(19)21)18(2)24(22,23)11-8-6-5-7-9-11/h5-9H,3-4,10,16H2,1-2H3,(H,17,20,21)

>  <InChIKey>
BDLSZMGNNJOQJF-UHFFFAOYSA-N

>  <SMILES>
CCCCN1C(=C(C(=O)NC1=O)N(C)S(=O)(=O)c2ccccc2)N

$$$$
