4RDN_6MD_A_601
  RCSB PDB08012023093D
Coordinates from PDB:4RDN:A:601 Model:1 without hydrogens
 20 22  0  0  0  0            999 V2000
   -9.1750  -29.2620   14.5420   O 0  0  0  0  0  0  0  0  0  0  0  0
   -8.6590  -29.0550   13.2450   C 0  0  0  0  0  0  0  0  0  0  0  0
   -9.1110  -30.2000   12.3530   C 0  0  0  0  0  0  0  0  0  0  0  0
  -10.5400  -30.1860   12.1800   O 0  0  0  0  0  0  0  0  0  0  0  0
   -8.5090  -30.0820   10.9640   C 0  0  0  0  0  0  0  0  0  0  0  0
   -7.2270  -30.6940   10.8420   O 0  0  0  0  0  0  0  0  0  0  0  0
   -9.5570  -30.7490   10.0960   C 0  0  0  0  0  0  0  0  0  0  0  0
   -9.3310  -32.1510    9.9870   O 0  0  0  0  0  0  0  0  0  0  0  0
  -10.8680  -30.4610   10.8210   C 0  0  0  0  0  0  0  0  0  0  0  0
  -11.5420  -29.2340   10.3370   N 0  0  0  0  0  0  0  0  0  0  0  0
  -10.9670  -28.1470    9.7730   C 0  0  0  0  0  0  0  0  0  0  0  0
  -11.8960  -27.2020    9.4900   N 0  0  0  0  0  0  0  0  0  0  0  0
  -13.0840  -27.6820    9.8850   C 0  0  0  0  0  0  0  0  0  0  0  0
  -14.4810  -27.1930    9.8680   C 0  0  0  0  0  0  0  0  0  0  0  0
  -14.7500  -25.9590    9.3930   N 0  0  0  0  0  0  0  0  0  0  0  0
  -15.4300  -28.0150   10.3860   N 0  0  0  0  0  0  0  0  0  0  0  0
  -15.1390  -29.2230   10.8940   C 0  0  0  0  0  0  0  0  0  0  0  0
  -13.8960  -29.7260   10.9340   N 0  0  0  0  0  0  0  0  0  0  0  0
  -12.8470  -29.0160   10.4500   C 0  0  0  0  0  0  0  0  0  0  0  0
  -16.0620  -25.3510    9.5340   C 0  0  0  0  0  0  0  0  0  0  0  0
 17 16  2  0  0  0  0
 17 18  1  0  0  0  0
 16 14  1  0  0  0  0
 18 19  2  0  0  0  0
 20 15  1  0  0  0  0
 14 15  1  0  0  0  0
 14 13  2  0  0  0  0
 19 13  1  0  0  0  0
 19 10  1  0  0  0  0
  3  4  1  0  0  0  0
  3  2  1  0  0  0  0
  3  5  1  0  0  0  0
  4  9  1  0  0  0  0
 13 12  1  0  0  0  0
  2  1  1  0  0  0  0
  6  5  1  0  0  0  0
  9 10  1  0  0  0  0
  9  7  1  0  0  0  0
 10 11  1  0  0  0  0
  5  7  1  0  0  0  0
  7  8  1  0  0  0  0
 12 11  2  0  0  0  0
M  END
>  <InstanceId>
4RDN_6MD_A_601

>  <ChemCompId>
6MD

>  <PdbId>
4RDN

>  <ChainId>
A

>  <ResidueNumber>
601

>  <InsertionCode>


>  <Model>
1

>  <AltIds>


>  <MissingHeavyAtoms>
0

>  <ObservedFormula>
C11 N5 O4

>  <Name>
N-methyladenosine

>  <SystematicName>
(2R,3S,4R,5R)-2-(hydroxymethyl)-5-[6-(methylamino)purin-9-yl]oxolane-3,4-diol

>  <Synonyms>


>  <Type>
NON-POLYMER

>  <Formula>
C11 H15 N5 O4

>  <MolecularWeight>
281.268

>  <ModifiedDate>
2013-11-01

>  <Parent>


>  <OneLetterCode>


>  <SubcomponentList>


>  <AmbiguousFlag>
N

>  <InChI>
InChI=1S/C11H15N5O4/c1-12-9-6-10(14-3-13-9)16(4-15-6)11-8(19)7(18)5(2-17)20-11/h3-5,7-8,11,17-19H,2H2,1H3,(H,12,13,14)/t5-,7-,8-,11-/m1/s1

>  <InChIKey>
VQAYFKKCNSOZKM-IOSLPCCCSA-N

>  <SMILES>
CNc1c2c(ncn1)n(cn2)[C@H]3[C@@H]([C@@H]([C@H](O3)CO)O)O

$$$$
