5F1X_ATP_A_501
  RCSB PDB08022001183D
Coordinates from PDB:5F1X:A:501 Model:1 without hydrogens
 31 33  0  0  0  0            999 V2000
   19.9070    1.4480    4.2260   P 0  0  0  0  0  0  0  0  0  0  0  0
   20.9430    2.2740    3.5130   O 0  0  0  0  0  0  0  0  0  0  0  0
   18.5870    2.1570    4.4700   O 0  0  0  0  0  0  0  0  0  0  0  0
   20.5480    0.7910    5.4320   O 0  0  0  0  0  0  0  0  0  0  0  0
   20.6600   -0.6880    2.4740   P 0  0  0  0  0  0  0  0  0  0  0  0
   20.6080   -0.6100    0.9490   O 0  0  0  0  0  0  0  0  0  0  0  0
   22.0540   -0.5400    2.9900   O 0  0  0  0  0  0  0  0  0  0  0  0
   19.5990    0.2500    3.2000   O 0  0  0  0  0  0  0  0  0  0  0  0
   19.0540   -3.1630    2.3790   P 0  0  0  0  0  0  0  0  0  0  0  0
   17.9790   -2.5030    1.5770   O 0  0  0  0  0  0  0  0  0  0  0  0
   19.7040   -4.3650    1.7210   O 0  0  0  0  0  0  0  0  0  0  0  0
   20.1310   -2.1270    3.0000   O 0  0  0  0  0  0  0  0  0  0  0  0
   18.3590   -3.6550    3.7150   O 0  0  0  0  0  0  0  0  0  0  0  0
   19.0430   -4.3280    4.7880   C 0  0  0  0  0  0  0  0  0  0  0  0
   18.0030   -4.8240    5.7970   C 0  0  0  0  0  0  0  0  0  0  0  0
   17.1270   -5.7650    5.1370   O 0  0  0  0  0  0  0  0  0  0  0  0
   18.6180   -5.5710    6.9760   C 0  0  0  0  0  0  0  0  0  0  0  0
   17.9740   -5.1570    8.1560   O 0  0  0  0  0  0  0  0  0  0  0  0
   18.2800   -7.0370    6.6450   C 0  0  0  0  0  0  0  0  0  0  0  0
   18.2770   -7.8240    7.8160   O 0  0  0  0  0  0  0  0  0  0  0  0
   16.9040   -6.8420    5.9880   C 0  0  0  0  0  0  0  0  0  0  0  0
   16.4070   -8.0540    5.2550   N 0  0  0  0  0  0  0  0  0  0  0  0
   16.9600   -8.6580    4.1780   C 0  0  0  0  0  0  0  0  0  0  0  0
   16.2160   -9.7090    3.8510   N 0  0  0  0  0  0  0  0  0  0  0  0
   15.1710   -9.7770    4.6760   C 0  0  0  0  0  0  0  0  0  0  0  0
   14.0580  -10.6360    4.8340   C 0  0  0  0  0  0  0  0  0  0  0  0
   13.9010  -11.7110    3.9640   N 0  0  0  0  0  0  0  0  0  0  0  0
   13.1750  -10.4180    5.8090   N 0  0  0  0  0  0  0  0  0  0  0  0
   13.3200   -9.3960    6.6410   C 0  0  0  0  0  0  0  0  0  0  0  0
   14.3400   -8.5640    6.5410   N 0  0  0  0  0  0  0  0  0  0  0  0
   15.2900   -8.7150    5.5970   C 0  0  0  0  0  0  0  0  0  0  0  0
  1  2  2  0  0  0  0
  1  3  1  0  0  0  0
  1  4  1  0  0  0  0
  1  8  1  0  0  0  0
  5  6  2  0  0  0  0
  5  7  1  0  0  0  0
  5  8  1  0  0  0  0
  5 12  1  0  0  0  0
  9 10  2  0  0  0  0
  9 11  1  0  0  0  0
  9 12  1  0  0  0  0
  9 13  1  0  0  0  0
 13 14  1  0  0  0  0
 14 15  1  0  0  0  0
 15 16  1  0  0  0  0
 15 17  1  0  0  0  0
 16 21  1  0  0  0  0
 17 18  1  0  0  0  0
 17 19  1  0  0  0  0
 19 20  1  0  0  0  0
 19 21  1  0  0  0  0
 21 22  1  0  0  0  0
 22 23  1  0  0  0  0
 22 31  1  0  0  0  0
 23 24  2  0  0  0  0
 24 25  1  0  0  0  0
 25 26  1  0  0  0  0
 25 31  2  0  0  0  0
 26 27  1  0  0  0  0
 26 28  2  0  0  0  0
 28 29  1  0  0  0  0
 29 30  2  0  0  0  0
 30 31  1  0  0  0  0
M  END
>  <InstanceId>
5F1X_ATP_A_501

>  <ChemCompId>
ATP

>  <PdbId>
5F1X

>  <ChainId>
A

>  <ResidueNumber>
501

>  <InsertionCode>


>  <Model>
1

>  <AltIds>


>  <MissingHeavyAtoms>
0

>  <ObservedFormula>
C10 N5 O13 P3

>  <Name>
ADENOSINE-5'-TRIPHOSPHATE

>  <SystematicName>
[[(2R,3S,4R,5R)-5-(6-aminopurin-9-yl)-3,4-dihydroxy-oxolan-2-yl]methoxy-hydroxy-phosphoryl] phosphono hydrogen phosphate

>  <Synonyms>


>  <Type>
NON-POLYMER

>  <Formula>
C10 H16 N5 O13 P3

>  <MolecularWeight>
507.181

>  <ModifiedDate>
2011-06-04

>  <Parent>


>  <OneLetterCode>


>  <SubcomponentList>


>  <AmbiguousFlag>
N

>  <InChI>
InChI=1S/C10H16N5O13P3/c11-8-5-9(13-2-12-8)15(3-14-5)10-7(17)6(16)4(26-10)1-25-30(21,22)28-31(23,24)27-29(18,19)20/h2-4,6-7,10,16-17H,1H2,(H,21,22)(H,23,24)(H2,11,12,13)(H2,18,19,20)/t4-,6-,7-,10-/m1/s1

>  <InChIKey>
ZKHQWZAMYRWXGA-KQYNXXCUSA-N

>  <SMILES>
c1nc(c2c(n1)n(cn2)[C@H]3[C@@H]([C@@H]([C@H](O3)CO[P@@](=O)(O)O[P@](=O)(O)OP(=O)(O)O)O)O)N

$$$$
