2CTC_HFA_A_309
  RCSB PDB08012016483D
Coordinates from PDB:2CTC:A:309 Model:1 without hydrogens
 12 12  0  0  0  0            999 V2000
   -3.1430   29.9510   -7.5210   O 0  0  0  0  0  0  0  0  0  0  0  0
   -2.4960   29.7350   -8.5250   C 0  0  0  0  0  0  0  0  0  0  0  0
   -1.0160   29.4920   -8.2580   C 0  0  0  0  0  0  0  0  0  0  0  0
   -0.7370   28.3520   -8.6920   O 0  0  0  0  0  0  0  0  0  0  0  0
   -2.6970   30.8080   -9.6040   C 0  0  0  0  0  0  0  0  0  0  0  0
   -2.4780   30.1810  -10.9420   C 0  0  0  0  0  0  0  0  0  0  0  0
   -1.2300   30.3900  -11.5760   C 0  0  0  0  0  0  0  0  0  0  0  0
   -3.4090   29.4290  -11.6850   C 0  0  0  0  0  0  0  0  0  0  0  0
   -0.9480   29.8730  -12.8540   C 0  0  0  0  0  0  0  0  0  0  0  0
   -3.1430   28.8790  -12.9390   C 0  0  0  0  0  0  0  0  0  0  0  0
   -1.8960   29.1080  -13.5440   C 0  0  0  0  0  0  0  0  0  0  0  0
   -0.2400   30.3370   -7.7570   O 0  0  0  0  0  0  0  0  0  0  0  0
  1  2  1  0  0  0  0
  2  3  1  0  0  0  0
  2  5  1  0  0  0  0
  3  4  2  0  0  0  0
  3 12  1  0  0  0  0
  5  6  1  0  0  0  0
  6  7  2  0  0  0  0
  6  8  1  0  0  0  0
  7  9  1  0  0  0  0
  8 10  2  0  0  0  0
  9 11  2  0  0  0  0
 10 11  1  0  0  0  0
M  END
>  <InstanceId>
2CTC_HFA_A_309

>  <ChemCompId>
HFA

>  <PdbId>
2CTC

>  <ChainId>
A

>  <ResidueNumber>
309

>  <InsertionCode>


>  <Model>
1

>  <AltIds>


>  <MissingHeavyAtoms>
0

>  <ObservedFormula>
C9 O3

>  <Name>
ALPHA-HYDROXY-BETA-PHENYL-PROPIONIC ACID

>  <SystematicName>
(2S)-2-hydroxy-3-phenyl-propanoic acid

>  <Synonyms>


>  <Type>
L-PEPTIDE LINKING

>  <Formula>
C9 H10 O3

>  <MolecularWeight>
166.174

>  <ModifiedDate>
2011-06-04

>  <Parent>


>  <OneLetterCode>
X

>  <SubcomponentList>


>  <AmbiguousFlag>
N

>  <InChI>
InChI=1S/C9H10O3/c10-8(9(11)12)6-7-4-2-1-3-5-7/h1-5,8,10H,6H2,(H,11,12)/t8-/m0/s1

>  <InChIKey>
VOXXWSYKYCBWHO-QMMMGPOBSA-N

>  <SMILES>
c1ccc(cc1)C[C@@H](C(=O)O)O

$$$$
