2PQB_GG9_A_501
  RCSB PDB08012017453D
Coordinates from PDB:2PQB:A:501 Model:1 without hydrogens
 28 28  0  0  0  0            999 V2000
 -127.7840   32.0210  127.7750   C 0  0  0  0  0  0  0  0  0  0  0  0
 -127.4180   32.3690  126.4040   C 0  0  0  0  0  0  0  0  0  0  0  0
 -128.5040   32.3270  125.3130   C 0  0  0  0  0  0  0  0  0  0  0  0
 -129.9960   32.3540  125.8790   C 0  0  0  0  0  0  0  0  0  0  0  0
 -130.1890   31.2700  126.9710   C 0  0  0  0  0  0  0  0  0  0  0  0
 -129.1940   31.6430  128.1630   C 0  0  0  0  0  0  0  0  0  0  0  0
 -126.6950   32.0350  128.8280   C 0  0  0  0  0  0  0  0  0  0  0  0
 -128.3580   31.1140  124.3810   O 0  0  0  0  0  0  0  0  0  0  0  0
 -130.8350   32.2050  124.7190   O 0  0  0  0  0  0  0  0  0  0  0  0
 -131.5660   31.2810  127.4530   O 0  0  0  0  0  0  0  0  0  0  0  0
 -125.5540   31.8580  128.4280   O 0  0  0  0  0  0  0  0  0  0  0  0
 -127.0170   32.1910  130.0050   O 0  0  0  0  0  0  0  0  0  0  0  0
 -127.3910   31.1220  123.0460   P 0  0  0  0  0  0  0  0  0  0  0  0
 -125.9160   31.1160  123.5140   O 0  0  0  0  0  0  0  0  0  0  0  0
 -127.8230   32.4300  122.3040   O 0  0  0  0  0  0  0  0  0  0  0  0
 -127.6420   29.7550  122.3860   O 0  0  0  0  0  0  0  0  0  0  0  0
 -132.5120   30.1670  127.2980   C 0  0  0  0  0  0  0  0  0  0  0  0
 -132.6890   29.6280  125.8300   C 0  0  0  0  0  0  0  0  0  0  0  0
 -133.8030   30.6710  127.9060   C 0  0  0  0  0  0  0  0  0  0  0  0
 -133.7180   30.7700  129.1780   O 0  0  0  0  0  0  0  0  0  0  0  0
 -134.8030   30.9360  127.2610   O 0  0  0  0  0  0  0  0  0  0  0  0
 -131.8170   27.7510  128.4630   P 0  0  0  0  0  0  0  0  0  0  0  0
 -131.9020   26.9290  127.2170   O 0  0  0  0  0  0  0  0  0  0  0  0
 -133.1220   27.6380  129.2280   O 0  0  0  0  0  0  0  0  0  0  0  0
 -130.6180   27.2610  129.3300   O 0  0  0  0  0  0  0  0  0  0  0  0
 -131.5780   29.3540  128.0870   O 0  0  0  0  0  0  0  0  0  0  0  0
 -131.5490   29.1990  125.3620   F 0  0  0  0  0  0  0  0  0  0  0  0
 -133.5370   28.6600  125.8580   F 0  0  0  0  0  0  0  0  0  0  0  0
  1  7  1  0  0  0  0
  1  2  2  0  0  0  0
  1  6  1  0  0  0  0
  2  3  1  0  0  0  0
  3  8  1  0  0  0  0
  3  4  1  0  0  0  0
  4  5  1  0  0  0  0
  4  9  1  0  0  0  0
  5  6  1  0  0  0  0
  5 10  1  0  0  0  0
  7 11  2  0  0  0  0
  7 12  1  0  0  0  0
  8 13  1  0  0  0  0
 10 17  1  0  0  0  0
 13 16  2  0  0  0  0
 13 14  1  0  0  0  0
 13 15  1  0  0  0  0
 17 26  1  0  0  0  0
 17 18  1  0  0  0  0
 17 19  1  0  0  0  0
 18 27  1  0  0  0  0
 18 28  1  0  0  0  0
 19 20  2  0  0  0  0
 19 21  1  0  0  0  0
 22 23  2  0  0  0  0
 22 25  1  0  0  0  0
 22 24  1  0  0  0  0
 22 26  1  0  0  0  0
M  END
>  <InstanceId>
2PQB_GG9_A_501

>  <ChemCompId>
GG9

>  <PdbId>
2PQB

>  <ChainId>
A

>  <ResidueNumber>
501

>  <InsertionCode>


>  <Model>
1

>  <AltIds>


>  <MissingHeavyAtoms>
0

>  <ObservedFormula>
C10 O14 P2 F2

>  <Name>
(3R,4S,5R)-5-[(1R)-1-CARBOXY-2,2-DIFLUORO-1-(PHOSPHONOOXY)ETHOXY]-4-HYDROXY-3-(PHOSPHONOOXY)CYCLOHEX-1-ENE-1-CARBOXYLIC ACID

>  <SystematicName>
(3R,4S,5R)-5-[(2R)-1,1-difluoro-3-hydroxy-3-oxo-2-phosphonooxy-propan-2-yl]oxy-4-hydroxy-3-phosphonooxy-cyclohexene-1-carboxylic acid

>  <Synonyms>


>  <Type>
NON-POLYMER

>  <Formula>
C10 H14 F2 O14 P2

>  <MolecularWeight>
458.154

>  <ModifiedDate>
2011-06-04

>  <Parent>


>  <OneLetterCode>


>  <SubcomponentList>


>  <AmbiguousFlag>


>  <InChI>
InChI=1S/C10H14F2O14P2/c11-8(12)10(9(16)17,26-28(21,22)23)24-4-1-3(7(14)15)2-5(6(4)13)25-27(18,19)20/h2,4-6,8,13H,1H2,(H,14,15)(H,16,17)(H2,18,19,20)(H2,21,22,23)/t4-,5-,6+,10+/m1/s1

>  <InChIKey>
OHXHNRRSMKIHDJ-VFWNUGQXSA-N

>  <SMILES>
C1[C@H]([C@@H]([C@@H](C=C1C(=O)O)OP(=O)(O)O)O)O[C@](C(F)F)(C(=O)O)OP(=O)(O)O

$$$$
