1V2S_BEN_T_1
  RCSB PDB08012016083D
Coordinates from PDB:1V2S:T:1 Model:1 without hydrogens
  9  9  0  0  0  0            999 V2000
   53.2740   67.0970  -28.8380   C 0  0  0  0  0  0  0  0  0  0  0  0
   52.6670   66.6830  -30.1090   C 0  0  0  0  0  0  0  0  0  0  0  0
   52.4040   67.6560  -31.1590   C 0  0  0  0  0  0  0  0  0  0  0  0
   52.7450   69.0580  -30.9540   C 0  0  0  0  0  0  0  0  0  0  0  0
   53.3450   69.4830  -29.7050   C 0  0  0  0  0  0  0  0  0  0  0  0
   53.6110   68.5090  -28.6500   C 0  0  0  0  0  0  0  0  0  0  0  0
   53.5520   66.0670  -27.7270   C 0  0  0  0  0  0  0  0  0  0  0  0
   54.1940   66.4370  -26.6360   N 0  0  0  0  0  0  0  0  0  0  0  0
   53.1490   64.8200  -27.8770   N 0  0  0  0  0  0  0  0  0  0  0  0
  1  2  2  0  0  0  0
  1  6  1  0  0  0  0
  1  7  1  0  0  0  0
  2  3  1  0  0  0  0
  3  4  2  0  0  0  0
  4  5  1  0  0  0  0
  5  6  2  0  0  0  0
  7  8  2  0  0  0  0
  7  9  1  0  0  0  0
M  END
>  <InstanceId>
1V2S_BEN_T_1

>  <ChemCompId>
BEN

>  <PdbId>
1V2S

>  <ChainId>
T

>  <ResidueNumber>
1

>  <InsertionCode>


>  <Model>
1

>  <AltIds>


>  <MissingHeavyAtoms>
0

>  <ObservedFormula>
C7 N2

>  <Name>
BENZAMIDINE

>  <SystematicName>
benzenecarboximidamide

>  <Synonyms>


>  <Type>
NON-POLYMER

>  <Formula>
C7 H8 N2

>  <MolecularWeight>
120.152

>  <ModifiedDate>
2011-06-04

>  <Parent>


>  <OneLetterCode>


>  <SubcomponentList>


>  <AmbiguousFlag>
N

>  <InChI>
InChI=1S/C7H8N2/c8-7(9)6-4-2-1-3-5-6/h1-5H,(H3,8,9)

>  <InChIKey>
PXXJHWLDUBFPOL-UHFFFAOYSA-N

>  <SMILES>
[H]/N=C(\c1ccccc1)/N

$$$$
