5I88_69G_A_205
  RCSB PDB08022001423D
Coordinates from PDB:5I88:A:205 Model:1 without hydrogens
 25 27  0  0  0  0            999 V2000
  -10.8300   -6.4110   11.9310   C 0  0  0  0  0  0  0  0  0  0  0  0
  -12.4950   -7.1240   10.3320   C 0  0  0  0  0  0  0  0  0  0  0  0
  -12.6100   -4.9090   11.2090   C 0  0  0  0  0  0  0  0  0  0  0  0
  -13.7080   -4.5990   10.4700   C 0  0  0  0  0  0  0  0  0  0  0  0
  -14.2520   -5.6250    9.5780   C 0  0  0  0  0  0  0  0  0  0  0  0
  -15.3270   -5.6770    8.6720   C 0  0  0  0  0  0  0  0  0  0  0  0
  -15.3320   -6.9040    8.1150   C 0  0  0  0  0  0  0  0  0  0  0  0
  -13.6220   -6.8770    9.5260   C 0  0  0  0  0  0  0  0  0  0  0  0
  -11.0700   -6.4010   13.4180   C 0  0  0  0  0  0  0  0  0  0  0  0
  -10.7200   -5.3090   15.6000   C 0  0  0  0  0  0  0  0  0  0  0  0
  -10.5430   -5.4040   14.1010   C 0  0  0  0  0  0  0  0  0  0  0  0
  -12.0400   -6.1510   11.1410   N 0  0  0  0  0  0  0  0  0  0  0  0
  -14.3030   -7.6470    8.6160   N 0  0  0  0  0  0  0  0  0  0  0  0
  -11.9310   -8.2210   10.2840   O 0  0  0  0  0  0  0  0  0  0  0  0
  -14.2530   -3.2330   10.5270   C 0  0  0  0  0  0  0  0  0  0  0  0
  -14.4210   -2.5590   11.7340   C 0  0  0  0  0  0  0  0  0  0  0  0
  -14.8980   -1.2660   11.7470   C 0  0  0  0  0  0  0  0  0  0  0  0
  -15.1930   -0.6130   10.5630   C 0  0  0  0  0  0  0  0  0  0  0  0
  -15.0010   -1.2710    9.3470   C 0  0  0  0  0  0  0  0  0  0  0  0
  -14.5300   -2.5830    9.3270   C 0  0  0  0  0  0  0  0  0  0  0  0
  -15.3310   -0.5620    8.0910   C 0  0  0  0  0  0  0  0  0  0  0  0
  -16.4080   -0.0150    8.0120   O 0  0  0  0  0  0  0  0  0  0  0  0
  -14.4830   -0.4920    7.0400   N 0  0  0  0  0  0  0  0  0  0  0  0
  -14.9090    0.2370    5.8430   C 0  0  0  0  0  0  0  0  0  0  0  0
  -13.1540   -1.1070    7.0460   C 0  0  0  0  0  0  0  0  0  0  0  0
 24 23  1  0  0  0  0
 23 25  1  0  0  0  0
 23 21  1  0  0  0  0
 22 21  2  0  0  0  0
 21 19  1  0  0  0  0
  7 13  1  0  0  0  0
  7  6  2  0  0  0  0
 13  8  1  0  0  0  0
  6  5  1  0  0  0  0
 20 19  2  0  0  0  0
 20 15  1  0  0  0  0
 19 18  1  0  0  0  0
  8  5  2  0  0  0  0
  8  2  1  0  0  0  0
  5  4  1  0  0  0  0
 14  2  2  0  0  0  0
  2 12  1  0  0  0  0
  4 15  1  0  0  0  0
  4  3  2  0  0  0  0
 15 16  2  0  0  0  0
 18 17  2  0  0  0  0
 12  3  1  0  0  0  0
 12  1  1  0  0  0  0
 16 17  1  0  0  0  0
  1  9  1  0  0  0  0
  9 11  2  0  0  0  0
 11 10  1  0  0  0  0
M  END
>  <InstanceId>
5I88_69G_A_205

>  <ChemCompId>
69G

>  <PdbId>
5I88

>  <ChainId>
A

>  <ResidueNumber>
205

>  <InsertionCode>


>  <Model>
1

>  <AltIds>


>  <MissingHeavyAtoms>
0

>  <ObservedFormula>
C20 N3 O2

>  <Name>
3-{6-[(2E)-but-2-en-1-yl]-7-oxo-6,7-dihydro-1H-pyrrolo[2,3-c]pyridin-4-yl}-N,N-dimethylbenzamide

>  <SystematicName>
3-[6-[(~{E})-but-2-enyl]-7-oxidanylidene-1~{H}-pyrrolo[2,3-c]pyridin-4-yl]-~{N},~{N}-dimethyl-benzamide

>  <Synonyms>


>  <Type>
NON-POLYMER

>  <Formula>
C20 H21 N3 O2

>  <MolecularWeight>
335.4

>  <ModifiedDate>
2016-10-07

>  <Parent>


>  <OneLetterCode>


>  <SubcomponentList>


>  <AmbiguousFlag>
N

>  <InChI>
InChI=1S/C20H21N3O2/c1-4-5-11-23-13-17(16-9-10-21-18(16)20(23)25)14-7-6-8-15(12-14)19(24)22(2)3/h4-10,12-13,21H,11H2,1-3H3/b5-4+

>  <InChIKey>
RJEMCUZKQLRUIS-SNAWJCMRSA-N

>  <SMILES>
C/C=C/CN1C=C(c2cc[nH]c2C1=O)c3cccc(c3)C(=O)N(C)C

$$$$
