3ML5_AZM_A_264
  RCSB PDB08012019483D
Coordinates from PDB:3ML5:A:264 Model:1 without hydrogens
 13 13  0  0  0  0            999 V2000
   -2.5460   -2.7960   19.6090   C 0  0  0  0  0  0  0  0  0  0  0  0
   -4.5190   -2.4240   20.8150   C 0  0  0  0  0  0  0  0  0  0  0  0
   -6.6040   -1.1100   20.9090   C 0  0  0  0  0  0  0  0  0  0  0  0
   -7.7590   -0.8200   21.8100   C 0  0  0  0  0  0  0  0  0  0  0  0
    0.1220   -2.4650   19.3250   N 0  0  0  0  0  0  0  0  0  0  0  0
   -3.7630   -3.3400   21.3670   N 0  0  0  0  0  0  0  0  0  0  0  0
   -2.6110   -3.5520   20.6560   N 0  0  0  0  0  0  0  0  0  0  0  0
   -5.7180   -2.0670   21.3910   N 0  0  0  0  0  0  0  0  0  0  0  0
   -1.0470   -4.2190   18.1030   O 0  0  0  0  0  0  0  0  0  0  0  0
   -1.4030   -1.8260   17.5280   O 0  0  0  0  0  0  0  0  0  0  0  0
   -6.4290   -0.5650   19.8370   O 0  0  0  0  0  0  0  0  0  0  0  0
   -1.1590   -2.8480   18.4960   S 0  0  0  0  0  0  0  0  0  0  0  0
   -3.8800   -1.7330   19.3570   S 0  0  0  0  0  0  0  0  0  0  0  0
  1  7  2  0  0  0  0
  1 12  1  0  0  0  0
  1 13  1  0  0  0  0
  2  6  2  0  0  0  0
  2  8  1  0  0  0  0
  2 13  1  0  0  0  0
  3  4  1  0  0  0  0
  3  8  1  0  0  0  0
  3 11  2  0  0  0  0
  5 12  1  0  0  0  0
  6  7  1  0  0  0  0
  9 12  2  0  0  0  0
 10 12  2  0  0  0  0
M  END
>  <InstanceId>
3ML5_AZM_A_264

>  <ChemCompId>
AZM

>  <PdbId>
3ML5

>  <ChainId>
A

>  <ResidueNumber>
264

>  <InsertionCode>


>  <Model>
1

>  <AltIds>


>  <MissingHeavyAtoms>
0

>  <ObservedFormula>
C4 N4 O3 S2

>  <Name>
5-ACETAMIDO-1,3,4-THIADIAZOLE-2-SULFONAMIDE

>  <SystematicName>
N-(5-sulfamoyl-1,3,4-thiadiazol-2-yl)ethanamide

>  <Synonyms>


>  <Type>
NON-POLYMER

>  <Formula>
C4 H6 N4 O3 S2

>  <MolecularWeight>
222.245

>  <ModifiedDate>
2011-06-04

>  <Parent>


>  <OneLetterCode>


>  <SubcomponentList>


>  <AmbiguousFlag>
N

>  <InChI>
InChI=1S/C4H6N4O3S2/c1-2(9)6-3-7-8-4(12-3)13(5,10)11/h1H3,(H2,5,10,11)(H,6,7,9)

>  <InChIKey>
BZKPWHYZMXOIDC-UHFFFAOYSA-N

>  <SMILES>
CC(=O)Nc1nnc(s1)S(=O)(=O)N

$$$$
