1C5Q_ESI_A_246
  RCSB PDB08012014403D
Coordinates from PDB:1C5Q:A:246 Model:1 without hydrogens
 13 14  0  0  0  0            999 V2000
   44.1310   -3.9270   25.1420   C 0  0  0  0  0  0  0  0  0  0  0  0
   43.9570   -3.2790   26.4120   C 0  0  0  0  0  0  0  0  0  0  0  0
   43.8910   -5.2050   24.9160   N 0  0  0  0  0  0  0  0  0  0  0  0
   44.5590   -3.1560   24.1610   N 0  3  0  0  0  0  0  0  0  0  0  0
   44.1630   -1.5820   26.6040   S 0  0  0  0  0  0  0  0  0  0  0  0
   43.7610   -1.8940   28.2420   C 0  0  0  0  0  0  0  0  0  0  0  0
   43.5070   -3.2050   28.5550   C 0  0  0  0  0  0  0  0  0  0  0  0
   43.6000   -4.1210   27.4660   C 0  0  0  0  0  0  0  0  0  0  0  0
   43.6750   -0.9380   29.2610   C 0  0  0  0  0  0  0  0  0  0  0  0
   43.3450   -1.3510   30.5550   C 0  0  0  0  0  0  0  0  0  0  0  0
   43.0830   -2.7060   30.8330   C 0  0  0  0  0  0  0  0  0  0  0  0
   43.1690   -3.6950   29.8180   C 0  0  0  0  0  0  0  0  0  0  0  0
   42.8350   -5.6220   30.4050   I 0  0  0  0  0  0  0  0  0  0  0  0
  1  2  1  0  0  0  0
  1  3  1  0  0  0  0
  1  4  2  0  0  0  0
  2  5  1  0  0  0  0
  2  8  2  0  0  0  0
  5  6  1  0  0  0  0
  6  7  2  0  0  0  0
  6  9  1  0  0  0  0
  7  8  1  0  0  0  0
  7 12  1  0  0  0  0
  9 10  2  0  0  0  0
 10 11  1  0  0  0  0
 11 12  2  0  0  0  0
 12 13  1  0  0  0  0
M  CHG  1   4   1
M  END
>  <InstanceId>
1C5Q_ESI_A_246

>  <ChemCompId>
ESI

>  <PdbId>
1C5Q

>  <ChainId>
A

>  <ResidueNumber>
246

>  <InsertionCode>


>  <Model>
1

>  <AltIds>


>  <MissingHeavyAtoms>
0

>  <ObservedFormula>
C9 N2 S I

>  <Name>
4-IODOBENZO[B]THIOPHENE-2-CARBOXAMIDINE

>  <SystematicName>
[amino-(4-iodo-1-benzothiophen-2-yl)methylidene]azanium

>  <Synonyms>


>  <Type>
NON-POLYMER

>  <Formula>
C9 H8 I N2 S

>  <MolecularWeight>
303.143

>  <ModifiedDate>
2011-06-04

>  <Parent>


>  <OneLetterCode>


>  <SubcomponentList>


>  <AmbiguousFlag>
N

>  <InChI>
InChI=1S/C9H7IN2S/c10-6-2-1-3-7-5(6)4-8(13-7)9(11)12/h1-4H,(H3,11,12)/p+1

>  <InChIKey>
YERQOXAYAFWFEJ-UHFFFAOYSA-O

>  <SMILES>
c1cc2c(cc(s2)C(=[NH2+])N)c(c1)I

$$$$
