1PBQ_DK1_A_1001
  RCSB PDB08012015423D
Coordinates from PDB:1PBQ:A:1001 Model:1 without hydrogens
 16 17  0  0  0  0            999 V2000
    6.3810   34.7180  -19.5990   O 0  0  0  0  0  0  0  0  0  0  0  0
    6.9650   34.9610  -18.5750   C 0  0  0  0  0  0  0  0  0  0  0  0
    7.9540   34.2680  -18.0960   O 0  0  0  0  0  0  0  0  0  0  0  0
    6.5880   36.1440  -17.7170   C 0  0  0  0  0  0  0  0  0  0  0  0
    5.5390   36.8930  -18.2050   N 0  0  0  0  0  0  0  0  0  0  0  0
    5.0630   38.0240  -17.5460   C 0  0  0  0  0  0  0  0  0  0  0  0
    3.9620   38.7370  -18.1320   C 0  0  0  0  0  0  0  0  0  0  0  0
    3.5000   39.8680  -17.4640   C 0  0  0  0  0  0  0  0  0  0  0  0
    2.1810   40.7420  -18.1170  Cl 0  0  0  0  0  0  0  0  0  0  0  0
    4.0750   40.3260  -16.2660   C 0  0  0  0  0  0  0  0  0  0  0  0
    5.1330   39.6350  -15.7070   C 0  0  0  0  0  0  0  0  0  0  0  0
    5.7330   40.3200  -14.2550  Cl 0  0  0  0  0  0  0  0  0  0  0  0
    5.6880   38.4370  -16.3070   C 0  0  0  0  0  0  0  0  0  0  0  0
    6.8160   37.6290  -15.7600   C 0  0  0  0  0  0  0  0  0  0  0  0
    7.4080   37.8950  -14.6970   O 0  0  0  0  0  0  0  0  0  0  0  0
    7.2160   36.4730  -16.5420   C 0  0  0  0  0  0  0  0  0  0  0  0
  1  2  1  0  0  0  0
  2  3  2  0  0  0  0
  2  4  1  0  0  0  0
  4  5  2  0  0  0  0
  4 16  1  0  0  0  0
  5  6  1  0  0  0  0
  6  7  2  0  0  0  0
  6 13  1  0  0  0  0
  7  8  1  0  0  0  0
  8  9  1  0  0  0  0
  8 10  2  0  0  0  0
 10 11  1  0  0  0  0
 11 12  1  0  0  0  0
 11 13  2  0  0  0  0
 13 14  1  0  0  0  0
 14 15  1  0  0  0  0
 14 16  2  0  0  0  0
M  END
>  <InstanceId>
1PBQ_DK1_A_1001

>  <ChemCompId>
DK1

>  <PdbId>
1PBQ

>  <ChainId>
A

>  <ResidueNumber>
1001

>  <InsertionCode>


>  <Model>
1

>  <AltIds>


>  <MissingHeavyAtoms>
0

>  <ObservedFormula>
C10 N O3 Cl2

>  <Name>
5,7-DICHLORO-4-HYDROXYQUINOLINE-2-CARBOXYLIC ACID

>  <SystematicName>
5,7-dichloro-4-hydroxy-quinoline-2-carboxylic acid

>  <Synonyms>
DCKA; 5,7-DICHLOROKYNURENIC ACID

>  <Type>
NON-POLYMER

>  <Formula>
C10 H5 Cl2 N O3

>  <MolecularWeight>
258.058

>  <ModifiedDate>
2020-05-27

>  <Parent>


>  <OneLetterCode>


>  <SubcomponentList>


>  <AmbiguousFlag>
N

>  <InChI>
InChI=1S/C10H5Cl2NO3/c11-4-1-5(12)9-6(2-4)13-7(10(15)16)3-8(9)14/h1-3H,(H,13,14)(H,15,16)

>  <InChIKey>
BGKFPRIGXAVYNX-UHFFFAOYSA-N

>  <SMILES>
c1c(cc(c2c1nc(cc2O)C(=O)O)Cl)Cl

$$$$
