1LI6_5MP_A_400
  RCSB PDB08012015233D
Coordinates from PDB:1LI6:A:400 Model:1 without hydrogens
  6  6  0  0  0  0            999 V2000
   26.7300    5.9470    4.3230   C 0  0  0  0  0  0  0  0  0  0  0  0
   27.1480    7.0620    5.1970   C 0  0  0  0  0  0  0  0  0  0  0  0
   27.3380    6.1470    3.1460   C 0  0  0  0  0  0  0  0  0  0  0  0
   25.8010    4.8230    4.6960   C 0  0  0  0  0  0  0  0  0  0  0  0
   27.9620    7.8210    4.4460   C 0  0  0  0  0  0  0  0  0  0  0  0
   28.0940    7.2770    3.2070   N 0  0  0  0  0  0  0  0  0  0  0  0
  1  2  1  0  0  0  0
  1  3  2  0  0  0  0
  1  4  1  0  0  0  0
  2  5  2  0  0  0  0
  3  6  1  0  0  0  0
  5  6  1  0  0  0  0
M  END
>  <InstanceId>
1LI6_5MP_A_400

>  <ChemCompId>
5MP

>  <PdbId>
1LI6

>  <ChainId>
A

>  <ResidueNumber>
400

>  <InsertionCode>


>  <Model>
1

>  <AltIds>


>  <MissingHeavyAtoms>
0

>  <ObservedFormula>
C5 N

>  <Name>
5-METHYLPYRROLE

>  <SystematicName>
3-methyl-1H-pyrrole

>  <Synonyms>


>  <Type>
NON-POLYMER

>  <Formula>
C5 H7 N

>  <MolecularWeight>
81.116

>  <ModifiedDate>
2011-06-04

>  <Parent>


>  <OneLetterCode>


>  <SubcomponentList>


>  <AmbiguousFlag>
N

>  <InChI>
InChI=1S/C5H7N/c1-5-2-3-6-4-5/h2-4,6H,1H3

>  <InChIKey>
FEKWWZCCJDUWLY-UHFFFAOYSA-N

>  <SMILES>
Cc1cc[nH]c1

$$$$
