4IWZ_1GO_A_301
  RCSB PDB08012022043D
Coordinates from PDB:4IWZ:A:301 Model:1 without hydrogens
 18 19  0  0  0  0            999 V2000
   15.9710    6.2210   13.0720   C 0  0  0  0  0  0  0  0  0  0  0  0
   15.1750    7.6390   11.2450   C 0  0  0  0  0  0  0  0  0  0  0  0
   13.2450    8.4180   10.2330   C 0  0  0  0  0  0  0  0  0  0  0  0
   15.8180   -0.2890   16.0430   N 0  0  0  0  0  0  0  0  0  0  0  0
   15.3360    1.1360   16.6710   S 0  0  0  0  0  0  0  0  0  0  0  0
   15.7240    1.2590   18.0630   O 0  0  0  0  0  0  0  0  0  0  0  0
   13.9090    1.3420   16.5480   O 0  0  0  0  0  0  0  0  0  0  0  0
   16.0920    2.4190   15.7700   C 0  0  0  0  0  0  0  0  0  0  0  0
   17.4180    2.5520   15.6450   N 0  0  0  0  0  0  0  0  0  0  0  0
   17.8030    3.6070   14.9020   N 0  0  0  0  0  0  0  0  0  0  0  0
   16.8150    4.3570   14.4170   C 0  0  0  0  0  0  0  0  0  0  0  0
   17.0590    5.5030   13.6130   N 0  0  0  0  0  0  0  0  0  0  0  0
   14.8110    5.9000   13.2790   O 0  0  0  0  0  0  0  0  0  0  0  0
   16.2430    7.4000   12.2370   C 0  0  0  0  0  0  0  0  0  0  0  0
   14.0220    8.4220   11.3860   C 0  0  0  0  0  0  0  0  0  0  0  0
   13.7180    7.6560    9.1740   C 0  0  0  0  0  0  0  0  0  0  0  0
   15.1940    6.9450    9.6850   S 0  0  0  0  0  0  0  0  0  0  0  0
   15.3030    3.6880   14.9170   S 0  0  0  0  0  0  0  0  0  0  0  0
 16 17  1  0  0  0  0
 16  3  2  0  0  0  0
 17  2  1  0  0  0  0
  3 15  1  0  0  0  0
  2 15  2  0  0  0  0
  2 14  1  0  0  0  0
 14  1  1  0  0  0  0
  1 13  2  0  0  0  0
  1 12  1  0  0  0  0
 12 11  1  0  0  0  0
 11 10  2  0  0  0  0
 11 18  1  0  0  0  0
 10  9  1  0  0  0  0
 18  8  1  0  0  0  0
  9  8  2  0  0  0  0
  8  5  1  0  0  0  0
  4  5  1  0  0  0  0
  7  5  2  0  0  0  0
  5  6  2  0  0  0  0
M  END
>  <InstanceId>
4IWZ_1GO_A_301

>  <ChemCompId>
1GO

>  <PdbId>
4IWZ

>  <ChainId>
A

>  <ResidueNumber>
301

>  <InsertionCode>


>  <Model>
1

>  <AltIds>


>  <MissingHeavyAtoms>
0

>  <ObservedFormula>
C8 N4 O3 S3

>  <Name>
N-(5-sulfamoyl-1,3,4-thiadiazol-2-yl)-2-(thiophen-2-yl)acetamide

>  <SystematicName>
N-(5-sulfamoyl-1,3,4-thiadiazol-2-yl)-2-thiophen-2-yl-ethanamide

>  <Synonyms>


>  <Type>
NON-POLYMER

>  <Formula>
C8 H8 N4 O3 S3

>  <MolecularWeight>
304.369

>  <ModifiedDate>
2013-12-06

>  <Parent>


>  <OneLetterCode>


>  <SubcomponentList>


>  <AmbiguousFlag>
N

>  <InChI>
InChI=1S/C8H8N4O3S3/c9-18(14,15)8-12-11-7(17-8)10-6(13)4-5-2-1-3-16-5/h1-3H,4H2,(H2,9,14,15)(H,10,11,13)

>  <InChIKey>
KROUVPYNINHEBZ-UHFFFAOYSA-N

>  <SMILES>
c1cc(sc1)CC(=O)Nc2nnc(s2)S(=O)(=O)N

$$$$
