1HVK_A79_A_800
  RCSB PDB08012015063D
Coordinates from PDB:1HVK:A:800 Model:1 without hydrogens
 58 61  0  0  0  0            999 V2000
    3.4420    3.3640   10.6640   C 0  0  0  0  0  0  0  0  0  0  0  0
    3.1030    4.0650   11.6060   O 0  0  0  0  0  0  0  0  0  0  0  0
    4.1080    3.8760    9.6230   N 0  0  0  0  0  0  0  0  0  0  0  0
    4.6590    3.0340    8.5660   C 0  0  0  0  0  0  0  0  0  0  0  0
    4.3760    5.3220    9.6130   C 0  0  0  0  0  0  0  0  0  0  0  0
    5.7860    5.6900    9.9970   C 0  0  0  0  0  0  0  0  0  0  0  0
    6.6870    6.0180    8.9940   C 0  0  0  0  0  0  0  0  0  0  0  0
    6.0940    5.7110   11.2940   N 0  0  0  0  0  0  0  0  0  0  0  0
    7.9610    6.3910    9.3940   C 0  0  0  0  0  0  0  0  0  0  0  0
    7.3140    6.0700   11.6630   C 0  0  0  0  0  0  0  0  0  0  0  0
    8.2870    6.4200   10.7470   C 0  0  0  0  0  0  0  0  0  0  0  0
    3.1570    2.0630   10.6230   N 0  0  0  0  0  0  0  0  0  0  0  0
    2.5380    1.3810   11.7760   C 0  0  0  0  0  0  0  0  0  0  0  0
    3.5500    0.4420   12.4210   C 0  0  0  0  0  0  0  0  0  0  0  0
    3.6830   -0.7230   12.0840   O 0  0  0  0  0  0  0  0  0  0  0  0
    1.1890    0.6750   11.4320   C 0  0  0  0  0  0  0  0  0  0  0  0
    0.1900    1.6100   10.7090   C 0  0  0  0  0  0  0  0  0  0  0  0
    0.5290    0.0770   12.6750   C 0  0  0  0  0  0  0  0  0  0  0  0
    4.2870    1.0030   13.3740   N 0  0  0  0  0  0  0  0  0  0  0  0
    5.2470    0.2310   14.1980   C 0  0  0  0  0  0  0  0  0  0  0  0
    6.6590    0.8140   14.1100   C 0  0  0  0  0  0  0  0  0  0  0  0
    7.1750    0.9510   12.7060   C 0  0  0  0  0  0  0  0  0  0  0  0
    7.6990   -0.1700   12.0450   C 0  0  0  0  0  0  0  0  0  0  0  0
    8.1810   -0.0360   10.7380   C 0  0  0  0  0  0  0  0  0  0  0  0
    8.1250    1.2070   10.0940   C 0  0  0  0  0  0  0  0  0  0  0  0
    7.6020    2.3230   10.7530   C 0  0  0  0  0  0  0  0  0  0  0  0
    7.1270    2.1980   12.0640   C 0  0  0  0  0  0  0  0  0  0  0  0
    4.7040    0.1060   15.6470   C 0  0  0  0  0  0  0  0  0  0  0  0
    4.7720    1.3930   16.2230   O 0  0  0  0  0  0  0  0  0  0  0  0
    5.2450   -0.8000   17.8600   O 0  0  0  0  0  0  0  0  0  0  0  0
    5.4110   -0.9690   16.4710   C 0  0  0  0  0  0  0  0  0  0  0  0
    5.8480   -3.3620   16.5460   N 0  0  0  0  0  0  0  0  0  0  0  0
    4.8840   -2.3660   16.1080   C 0  0  0  0  0  0  0  0  0  0  0  0
    3.4900   -2.7020   16.6590   C 0  0  0  0  0  0  0  0  0  0  0  0
    3.0970   -4.1240   16.3490   C 0  0  0  0  0  0  0  0  0  0  0  0
    2.5550   -4.4390   15.0980   C 0  0  0  0  0  0  0  0  0  0  0  0
    2.2680   -5.7770   14.7770   C 0  0  0  0  0  0  0  0  0  0  0  0
    2.5240   -6.7940   15.7040   C 0  0  0  0  0  0  0  0  0  0  0  0
    3.0480   -6.4830   16.9610   C 0  0  0  0  0  0  0  0  0  0  0  0
    3.3320   -5.1530   17.2930   C 0  0  0  0  0  0  0  0  0  0  0  0
    7.0960   -6.2180   16.8450   N 0  0  0  0  0  0  0  0  0  0  0  0
    7.6370   -4.9150   16.4650   C 0  0  0  0  0  0  0  0  0  0  0  0
    6.6290   -4.0560   15.7260   C 0  0  0  0  0  0  0  0  0  0  0  0
    6.5580   -3.9890   14.5120   O 0  0  0  0  0  0  0  0  0  0  0  0
    8.9600   -5.0190   15.7100   C 0  0  0  0  0  0  0  0  0  0  0  0
    9.9270   -5.8680   16.5510   C 0  0  0  0  0  0  0  0  0  0  0  0
    9.5560   -3.6280   15.4470   C 0  0  0  0  0  0  0  0  0  0  0  0
    6.8980   -6.6250   18.1010   C 0  0  0  0  0  0  0  0  0  0  0  0
    7.2170   -5.9320   19.0590   O 0  0  0  0  0  0  0  0  0  0  0  0
    6.3220   -7.8510   18.2480   N 0  0  0  0  0  0  0  0  0  0  0  0
    5.8680   -8.6360   17.0970   C 0  0  0  0  0  0  0  0  0  0  0  0
    6.0170   -8.3880   19.5770   C 0  0  0  0  0  0  0  0  0  0  0  0
    4.6530   -7.9530   20.0750   C 0  0  0  0  0  0  0  0  0  0  0  0
    3.5500   -8.8050   19.9280   C 0  0  0  0  0  0  0  0  0  0  0  0
    4.5730   -6.7420   20.6480   N 0  0  0  0  0  0  0  0  0  0  0  0
    2.3010   -8.3770   20.3930   C 0  0  0  0  0  0  0  0  0  0  0  0
    3.3660   -6.3450   21.0900   C 0  0  0  0  0  0  0  0  0  0  0  0
    2.2070   -7.1250   20.9900   C 0  0  0  0  0  0  0  0  0  0  0  0
  1  2  2  0  0  0  0
  1  3  1  0  0  0  0
  1 12  1  0  0  0  0
  3  4  1  0  0  0  0
  3  5  1  0  0  0  0
  5  6  1  0  0  0  0
  6  7  1  0  0  0  0
  6  8  2  0  0  0  0
  7  9  2  0  0  0  0
  8 10  1  0  0  0  0
  9 11  1  0  0  0  0
 10 11  2  0  0  0  0
 12 13  1  0  0  0  0
 13 14  1  0  0  0  0
 13 16  1  0  0  0  0
 14 15  2  0  0  0  0
 14 19  1  0  0  0  0
 16 17  1  0  0  0  0
 16 18  1  0  0  0  0
 19 20  1  0  0  0  0
 20 21  1  0  0  0  0
 20 28  1  0  0  0  0
 21 22  1  0  0  0  0
 22 23  2  0  0  0  0
 22 27  1  0  0  0  0
 23 24  1  0  0  0  0
 24 25  2  0  0  0  0
 25 26  1  0  0  0  0
 26 27  2  0  0  0  0
 28 29  1  0  0  0  0
 28 31  1  0  0  0  0
 30 31  1  0  0  0  0
 31 33  1  0  0  0  0
 32 33  1  0  0  0  0
 32 43  1  0  0  0  0
 33 34  1  0  0  0  0
 34 35  1  0  0  0  0
 35 36  2  0  0  0  0
 35 40  1  0  0  0  0
 36 37  1  0  0  0  0
 37 38  2  0  0  0  0
 38 39  1  0  0  0  0
 39 40  2  0  0  0  0
 41 42  1  0  0  0  0
 41 48  1  0  0  0  0
 42 43  1  0  0  0  0
 42 45  1  0  0  0  0
 43 44  2  0  0  0  0
 45 46  1  0  0  0  0
 45 47  1  0  0  0  0
 48 49  2  0  0  0  0
 48 50  1  0  0  0  0
 50 51  1  0  0  0  0
 50 52  1  0  0  0  0
 52 53  1  0  0  0  0
 53 54  1  0  0  0  0
 53 55  2  0  0  0  0
 54 56  2  0  0  0  0
 55 57  1  0  0  0  0
 56 58  1  0  0  0  0
 57 58  2  0  0  0  0
M  END
>  <InstanceId>
1HVK_A79_A_800

>  <ChemCompId>
A79

>  <PdbId>
1HVK

>  <ChainId>
A

>  <ResidueNumber>
800

>  <InsertionCode>


>  <Model>
1

>  <AltIds>


>  <MissingHeavyAtoms>
0

>  <ObservedFormula>
C44 N8 O6

>  <Name>
N-{1-BENZYL-(2S,3S)-2,3-DIHYDROXY-4-[3-METHYL-2-(3-METHYL-3-PYRIDIN-2-YLMETHYL-UREIDO)-BUTYRYLAMINO]-5-PHENYL-PENTYL}-3-METHYL-2-(3-METHYL-3-PYRIDIN-2-YLMETHYL-UREIDO)-BUTYRAMIDE

>  <SystematicName>
(2S)-N-[(2S,3S,4S,5S)-3,4-dihydroxy-5-[[(2S)-3-methyl-2-[(methyl-(pyridin-2-ylmethyl)carbamoyl)amino]butanoyl]amino]-1,6-diphenyl-hexan-2-yl]-3-methyl-2-[(methyl-(pyridin-2-ylmethyl)carbamoyl)amino]butanamide

>  <Synonyms>


>  <Type>
NON-POLYMER

>  <Formula>
C44 H58 N8 O6

>  <MolecularWeight>
794.981

>  <ModifiedDate>
2011-06-04

>  <Parent>


>  <OneLetterCode>


>  <SubcomponentList>


>  <AmbiguousFlag>
N

>  <InChI>
InChI=1S/C44H58N8O6/c1-29(2)37(49-43(57)51(5)27-33-21-13-15-23-45-33)41(55)47-35(25-31-17-9-7-10-18-31)39(53)40(54)36(26-32-19-11-8-12-20-32)48-42(56)38(30(3)4)50-44(58)52(6)28-34-22-14-16-24-46-34/h7-24,29-30,35-40,53-54H,25-28H2,1-6H3,(H,47,55)(H,48,56)(H,49,57)(H,50,58)/t35-,36-,37-,38-,39-,40-/m0/s1

>  <InChIKey>
QPVWMQXBTCSLCB-UNHORJANSA-N

>  <SMILES>
CC(C)[C@@H](C(=O)N[C@@H](Cc1ccccc1)[C@@H]([C@H]([C@H](Cc2ccccc2)NC(=O)[C@H](C(C)C)NC(=O)N(C)Cc3ccccn3)O)O)NC(=O)N(C)Cc4ccccn4

$$$$
