5VAR_92Y_A_1101
  RCSB PDB08022003193D
Coordinates from PDB:5VAR:A:1101 Model:1 without hydrogens
 18 20  0  0  0  0            999 V2000
   22.5670  -11.8910    7.8120   C 0  0  0  0  0  0  0  0  0  0  0  0
   23.7830  -11.9880    7.0960   C 0  0  0  0  0  0  0  0  0  0  0  0
   24.0440  -11.0790    6.0620   C 0  0  0  0  0  0  0  0  0  0  0  0
   23.0940  -10.0740    5.7250   C 0  0  0  0  0  0  0  0  0  0  0  0
   21.8670   -9.9740    6.4270   C 0  0  0  0  0  0  0  0  0  0  0  0
   21.0190   -7.5610    6.7680   C 0  0  0  0  0  0  0  0  0  0  0  0
   19.3230   -8.0850    4.3390   C 0  0  0  0  0  0  0  0  0  0  0  0
   19.3800   -9.2240    6.3770   C 0  0  0  0  0  0  0  0  0  0  0  0
   19.3660   -4.2010    8.1570   C 0  0  0  0  0  0  0  0  0  0  0  0
   22.0090   -6.7090    6.2280   O 0  0  0  0  0  0  0  0  0  0  0  0
   20.2470   -4.5950    7.0200   N 0  0  0  0  0  0  0  0  0  0  0  0
   21.6270  -10.9030    7.4930   C 0  0  0  0  0  0  0  0  0  0  0  0
   20.8480   -8.9390    6.0310   C 0  0  0  0  0  0  0  0  0  0  0  0
   19.6100   -6.9090    6.6000   C 0  0  0  0  0  0  0  0  0  0  0  0
   18.8230   -7.9310    5.7870   C 0  0  0  0  0  0  0  0  0  0  0  0
   20.7190   -8.6750    4.5030   C 0  0  0  0  0  0  0  0  0  0  0  0
   19.5870   -5.4810    6.0300   C 0  0  0  0  0  0  0  0  0  0  0  0
   20.8030   -3.4060    6.3230   C 0  0  0  0  0  0  0  0  0  0  0  0
  7 16  1  0  0  0  0
  7 15  1  0  0  0  0
 16 13  1  0  0  0  0
  4  3  2  0  0  0  0
  4  5  1  0  0  0  0
 15  8  1  0  0  0  0
 15 14  1  0  0  0  0
 17 14  1  0  0  0  0
 17 11  1  0  0  0  0
 13  8  1  0  0  0  0
 13  5  1  0  0  0  0
 13  6  1  0  0  0  0
  3  2  1  0  0  0  0
 10  6  1  0  0  0  0
 18 11  1  0  0  0  0
  5 12  2  0  0  0  0
 14  6  1  0  0  0  0
 11  9  1  0  0  0  0
  2  1  2  0  0  0  0
 12  1  1  0  0  0  0
M  END
>  <InstanceId>
5VAR_92Y_A_1101

>  <ChemCompId>
92Y

>  <PdbId>
5VAR

>  <ChainId>
A

>  <ResidueNumber>
1101

>  <InsertionCode>


>  <Model>
1

>  <AltIds>


>  <MissingHeavyAtoms>
0

>  <ObservedFormula>
C16 N O

>  <Name>
(1R,2S,3R,4S)-3-[(dimethylamino)methyl]-1-phenylbicyclo[2.2.1]heptan-2-ol

>  <SystematicName>
(1~{R},2~{S},3~{R},4~{S})-3-[(dimethylamino)methyl]-1-phenyl-bicyclo[2.2.1]heptan-2-ol

>  <Synonyms>


>  <Type>
NON-POLYMER

>  <Formula>
C16 H23 N O

>  <MolecularWeight>
245.36

>  <ModifiedDate>
2018-03-23

>  <Parent>


>  <OneLetterCode>


>  <SubcomponentList>


>  <AmbiguousFlag>
N

>  <InChI>
InChI=1S/C16H23NO/c1-17(2)11-14-12-8-9-16(10-12,15(14)18)13-6-4-3-5-7-13/h3-7,12,14-15,18H,8-11H2,1-2H3/t12-,14-,15-,16+/m0/s1

>  <InChIKey>
HGNFUCJMHJYHIN-QCEMKRCNSA-N

>  <SMILES>
CN(C)C[C@H]1[C@H]2CC[C@](C2)([C@H]1O)c3ccccc3

$$$$
