3RF4_FUN_A_201
  RCSB PDB08012020203D
Coordinates from PDB:3RF4:A:201 Model:1 without hydrogens
 21 22  0  0  0  0            999 V2000
  -50.8250   48.7010   12.8980   N 0  0  0  0  0  0  0  0  0  0  0  0
  -50.1660   47.8100   13.8770   S 0  0  0  0  0  0  0  0  0  0  0  0
  -51.1520   46.9120   14.5080   O 0  0  0  0  0  0  0  0  0  0  0  0
  -49.2080   48.5740   14.7760   O 0  0  0  0  0  0  0  0  0  0  0  0
  -49.1590   46.7810   13.0010   C 0  0  0  0  0  0  0  0  0  0  0  0
  -48.0870   47.2760   12.0780   C 0  0  0  0  0  0  0  0  0  0  0  0
  -47.8000   48.7710   11.8270  Cl 0  0  0  0  0  0  0  0  0  0  0  0
  -47.3210   46.3680   11.3290   C 0  0  0  0  0  0  0  0  0  0  0  0
  -47.5260   44.9880   11.4800   C 0  0  0  0  0  0  0  0  0  0  0  0
  -46.7520   44.0570   10.7580   N 0  0  0  0  0  0  0  0  0  0  0  0
  -45.9250   44.6450    9.6700   C 0  0  0  0  0  0  0  0  0  0  0  0
  -46.7150   44.9890    8.4510   C 0  0  0  0  0  0  0  0  0  0  0  0
  -47.4070   44.0500    7.7020   C 0  0  0  0  0  0  0  0  0  0  0  0
  -48.0280   44.7270    6.6670   C 0  0  0  0  0  0  0  0  0  0  0  0
  -47.7030   46.0600    6.7940   C 0  0  0  0  0  0  0  0  0  0  0  0
  -46.9000   46.2720    7.9350   O 0  0  0  0  0  0  0  0  0  0  0  0
  -48.5390   44.5270   12.4150   C 0  0  0  0  0  0  0  0  0  0  0  0
  -49.3230   45.4110   13.2360   C 0  0  0  0  0  0  0  0  0  0  0  0
  -48.6830   43.0520   12.6430   C 0  0  0  0  0  0  0  0  0  0  0  0
  -49.3420   42.6860   13.6280   O 0  0  0  0  0  0  0  0  0  0  0  0
  -48.1290   42.2760   11.8520   O 0  0  0  0  0  0  0  0  0  0  0  0
  1  2  1  0  0  0  0
  2  3  2  0  0  0  0
  2  4  2  0  0  0  0
  2  5  1  0  0  0  0
  5  6  2  0  0  0  0
  5 18  1  0  0  0  0
  6  7  1  0  0  0  0
  6  8  1  0  0  0  0
  8  9  2  0  0  0  0
  9 10  1  0  0  0  0
  9 17  1  0  0  0  0
 10 11  1  0  0  0  0
 11 12  1  0  0  0  0
 12 13  2  0  0  0  0
 12 16  1  0  0  0  0
 13 14  1  0  0  0  0
 14 15  2  0  0  0  0
 15 16  1  0  0  0  0
 17 18  2  0  0  0  0
 17 19  1  0  0  0  0
 19 20  1  0  0  0  0
 19 21  2  0  0  0  0
M  END
>  <InstanceId>
3RF4_FUN_A_201

>  <ChemCompId>
FUN

>  <PdbId>
3RF4

>  <ChainId>
A

>  <ResidueNumber>
201

>  <InsertionCode>


>  <Model>
1

>  <AltIds>


>  <MissingHeavyAtoms>
0

>  <ObservedFormula>
C12 N2 O5 S Cl

>  <Name>
5-(AMINOSULFONYL)-4-CHLORO-2-[(2-FURYLMETHYL)AMINO]BENZOIC ACID

>  <SystematicName>
4-chloro-2-(furan-2-ylmethylamino)-5-sulfamoyl-benzoic acid

>  <Synonyms>
Furosemide

>  <Type>
NON-POLYMER

>  <Formula>
C12 H11 Cl N2 O5 S

>  <MolecularWeight>
330.744

>  <ModifiedDate>
2011-06-04

>  <Parent>


>  <OneLetterCode>


>  <SubcomponentList>


>  <AmbiguousFlag>
N

>  <InChI>
InChI=1S/C12H11ClN2O5S/c13-9-5-10(15-6-7-2-1-3-20-7)8(12(16)17)4-11(9)21(14,18)19/h1-5,15H,6H2,(H,16,17)(H2,14,18,19)

>  <InChIKey>
ZZUFCTLCJUWOSV-UHFFFAOYSA-N

>  <SMILES>
c1cc(oc1)CNc2cc(c(cc2C(=O)O)S(=O)(=O)N)Cl

$$$$
