6EOG_BKK_A_1001
  RCSB PDB08022004333D
Coordinates from PDB:6EOG:A:1001 Model:1 without hydrogens
 32 35  0  0  0  0            999 V2000
  -17.3340    7.5260   -1.6710   C 0  0  0  0  0  0  0  0  0  0  0  0
  -19.3540    6.3500   -0.9040   C 0  0  0  0  0  0  0  0  0  0  0  0
  -18.1100    8.8250   -1.5850   C 0  0  0  0  0  0  0  0  0  0  0  0
  -19.5870    8.4890   -1.7970   C 0  0  0  0  0  0  0  0  0  0  0  0
  -19.9700    5.3880    0.1080   C 0  0  0  0  0  0  0  0  0  0  0  0
  -15.2090    8.1860   -0.3820   C 0  0  0  0  0  0  0  0  0  0  0  0
  -11.4880    8.6940   -0.5880   C 0  0  0  0  0  0  0  0  0  0  0  0
  -11.6840    8.7300    2.1450   C 0  0  0  0  0  0  0  0  0  0  0  0
  -10.4510    8.9160    1.5670   C 0  0  0  0  0  0  0  0  0  0  0  0
  -10.3630    8.9280    0.1290   C 0  0  0  0  0  0  0  0  0  0  0  0
  -23.7370    7.6190   -4.5000   C 0  0  0  0  0  0  0  0  0  0  0  0
  -22.9760    8.7060   -4.9130   C 0  0  0  0  0  0  0  0  0  0  0  0
  -13.8870    8.1760   -0.7510   C 0  0  0  0  0  0  0  0  0  0  0  0
  -12.7050    8.4940    0.0440   C 0  0  0  0  0  0  0  0  0  0  0  0
  -12.7920    8.4220    1.4190   C 0  0  0  0  0  0  0  0  0  0  0  0
  -24.4870    5.8050   -2.6350  Cl 0  0  0  0  0  0  0  0  0  0  0  0
  -23.5230    7.2050   -3.1890   C 0  0  0  0  0  0  0  0  0  0  0  0
  -22.5970    7.8540   -2.3530   C 0  0  0  0  0  0  0  0  0  0  0  0
  -21.8370    8.9760   -2.7970   C 0  0  0  0  0  0  0  0  0  0  0  0
  -22.0810    9.3640   -4.1220   C 0  0  0  0  0  0  0  0  0  0  0  0
  -20.6640    9.8200   -1.8240   S 0  0  0  0  0  0  0  0  0  0  0  0
  -20.0020    7.6000   -0.7610   O 0  0  0  0  0  0  0  0  0  0  0  0
  -21.3550    5.1530   -0.1310   O 0  0  0  0  0  0  0  0  0  0  0  0
  -17.8890    6.5530   -0.6750   C 0  0  0  0  0  0  0  0  0  0  0  0
  -17.6280    6.9700    0.6520   O 0  0  0  0  0  0  0  0  0  0  0  0
  -17.6920    9.7500   -2.6160   O 0  0  0  0  0  0  0  0  0  0  0  0
  -15.9160    7.7640   -1.4450   N 0  0  0  0  0  0  0  0  0  0  0  0
  -13.7990    7.7180   -2.0330   N 0  0  0  0  0  0  0  0  0  0  0  0
  -15.0710    7.4880   -2.4670   N 0  0  0  0  0  0  0  0  0  0  0  0
   -9.1600    9.1080   -0.4560   F 0  0  0  0  0  0  0  0  0  0  0  0
   -9.3410    9.1570    2.2550   F 0  0  0  0  0  0  0  0  0  0  0  0
  -11.7010    8.7030    3.5160   F 0  0  0  0  0  0  0  0  0  0  0  0
 12 11  2  0  0  0  0
 12 20  1  0  0  0  0
 11 17  1  0  0  0  0
 20 19  2  0  0  0  0
 17 16  1  0  0  0  0
 17 18  2  0  0  0  0
 19 18  1  0  0  0  0
 19 21  1  0  0  0  0
 26  3  1  0  0  0  0
 29 28  2  0  0  0  0
 29 27  1  0  0  0  0
 28 13  1  0  0  0  0
 21  4  1  0  0  0  0
  4  3  1  0  0  0  0
  4 22  1  0  0  0  0
  1  3  1  0  0  0  0
  1 27  1  0  0  0  0
  1 24  1  0  0  0  0
 27  6  1  0  0  0  0
  2 22  1  0  0  0  0
  2 24  1  0  0  0  0
  2  5  1  0  0  0  0
 13  6  2  0  0  0  0
 13 14  1  0  0  0  0
 24 25  1  0  0  0  0
  7 14  2  0  0  0  0
  7 10  1  0  0  0  0
 30 10  1  0  0  0  0
 23  5  1  0  0  0  0
 14 15  1  0  0  0  0
 10  9  2  0  0  0  0
 15  8  2  0  0  0  0
  9  8  1  0  0  0  0
  9 31  1  0  0  0  0
  8 32  1  0  0  0  0
M  END
>  <InstanceId>
6EOG_BKK_A_1001

>  <ChemCompId>
BKK

>  <PdbId>
6EOG

>  <ChainId>
A

>  <ResidueNumber>
1001

>  <InsertionCode>


>  <Model>
1

>  <AltIds>


>  <MissingHeavyAtoms>
0

>  <ObservedFormula>
C20 N3 O4 S F3 Cl

>  <Name>
(2~{S},3~{R},4~{S},5~{R},6~{R})-2-(3-chlorophenyl)sulfanyl-6-(hydroxymethyl)-4-[4-[3,4,5-tris(fluoranyl)phenyl]-1,2,3-triazol-1-yl]oxane-3,5-diol

>  <SystematicName>
(2~{S},3~{R},4~{S},5~{R},6~{R})-2-(3-chlorophenyl)sulfanyl-6-(hydroxymethyl)-4-[4-[3,4,5-tris(fluoranyl)phenyl]-1,2,3-triazol-1-yl]oxane-3,5-diol

>  <Synonyms>


>  <Type>
NON-POLYMER

>  <Formula>
C20 H17 Cl F3 N3 O4 S

>  <MolecularWeight>
487.88

>  <ModifiedDate>
2018-08-17

>  <Parent>


>  <OneLetterCode>


>  <SubcomponentList>


>  <AmbiguousFlag>
N

>  <InChI>
InChI=1S/C20H17ClF3N3O4S/c21-10-2-1-3-11(6-10)32-20-19(30)17(18(29)15(8-28)31-20)27-7-14(25-26-27)9-4-12(22)16(24)13(23)5-9/h1-7,15,17-20,28-30H,8H2/t15-,17+,18+,19-,20+/m1/s1

>  <InChIKey>
MJHCQQXAUYYTBY-ZKIDJSGLSA-N

>  <SMILES>
c1cc(cc(c1)Cl)S[C@H]2[C@@H]([C@H]([C@H]([C@H](O2)CO)O)n3cc(nn3)c4cc(c(c(c4)F)F)F)O

$$$$
