2HA6_SCK_A_901
  RCSB PDB08012017073D
Coordinates from PDB:2HA6:A:901 Model:1 without hydrogens
 20 19  0  0  0  0            999 V2000
   29.8800   22.7060   11.9510   O 0  0  0  0  0  0  0  0  0  0  0  0
   29.0470   21.7970   11.9270   C 0  0  0  0  0  0  0  0  0  0  0  0
   28.4480   21.3820   13.1960   O 0  0  0  0  0  0  0  0  0  0  0  0
   27.1210   20.8690   13.3510   C 0  0  0  0  0  0  0  0  0  0  0  0
   27.1330   19.3310   13.2960   C 0  0  0  0  0  0  0  0  0  0  0  0
   26.6560   18.7150   14.5420   N 0  3  0  0  0  0  0  0  0  0  0  0
   26.7300   17.2370   14.4320   C 0  0  0  0  0  0  0  0  0  0  0  0
   27.5340   19.1400   15.6510   C 0  0  0  0  0  0  0  0  0  0  0  0
   25.2510   19.1210   14.7480   C 0  0  0  0  0  0  0  0  0  0  0  0
   28.6840   21.1190   10.6200   C 0  0  0  0  0  0  0  0  0  0  0  0
   29.4930   21.6940    9.4390   C 0  0  0  0  0  0  0  0  0  0  0  0
   30.9080   21.1880    9.5120   C 0  0  0  0  0  0  0  0  0  0  0  0
   31.0890   20.0260    9.8600   O 0  0  0  0  0  0  0  0  0  0  0  0
   32.0310   22.0710    9.2110   O 0  0  0  0  0  0  0  0  0  0  0  0
   33.3940   21.6170    9.3760   C 0  0  0  0  0  0  0  0  0  0  0  0
   34.4310   22.4140    8.5670   C 0  0  0  0  0  0  0  0  0  0  0  0
   35.2390   23.3440    9.3830   N 0  3  0  0  0  0  0  0  0  0  0  0
   34.3670   24.4050    9.8950   C 0  0  0  0  0  0  0  0  0  0  0  0
   35.8800   22.6350   10.4990   C 0  0  0  0  0  0  0  0  0  0  0  0
   36.2890   23.9380    8.5470   C 0  0  0  0  0  0  0  0  0  0  0  0
  1  2  2  0  0  0  0
  2  3  1  0  0  0  0
  2 10  1  0  0  0  0
  3  4  1  0  0  0  0
  4  5  1  0  0  0  0
  5  6  1  0  0  0  0
  6  7  1  0  0  0  0
  6  8  1  0  0  0  0
  6  9  1  0  0  0  0
 10 11  1  0  0  0  0
 11 12  1  0  0  0  0
 12 13  2  0  0  0  0
 12 14  1  0  0  0  0
 14 15  1  0  0  0  0
 15 16  1  0  0  0  0
 16 17  1  0  0  0  0
 17 18  1  0  0  0  0
 17 19  1  0  0  0  0
 17 20  1  0  0  0  0
M  CHG  2   6   1  17   1
M  END
>  <InstanceId>
2HA6_SCK_A_901

>  <ChemCompId>
SCK

>  <PdbId>
2HA6

>  <ChainId>
A

>  <ResidueNumber>
901

>  <InsertionCode>


>  <Model>
1

>  <AltIds>


>  <MissingHeavyAtoms>
0

>  <ObservedFormula>
C14 N2 O4

>  <Name>
2,2'-[(1,4-DIOXOBUTANE-1,4-DIYL)BIS(OXY)]BIS(N,N,N-TRIMETHYLETHANAMINIUM)

>  <SystematicName>
trimethyl-[2-[4-oxo-4-(2-trimethylazaniumylethoxy)butanoyl]oxyethyl]azanium

>  <Synonyms>
SUCCINYLDICHOLINE

>  <Type>
NON-POLYMER

>  <Formula>
C14 H30 N2 O4

>  <MolecularWeight>
290.399

>  <ModifiedDate>
2011-06-04

>  <Parent>


>  <OneLetterCode>


>  <SubcomponentList>


>  <AmbiguousFlag>
N

>  <InChI>
InChI=1S/C14H30N2O4/c1-15(2,3)9-11-19-13(17)7-8-14(18)20-12-10-16(4,5)6/h7-12H2,1-6H3/q+2

>  <InChIKey>
AXOIZCJOOAYSMI-UHFFFAOYSA-N

>  <SMILES>
C[N+](C)(C)CCOC(=O)CCC(=O)OCC[N+](C)(C)C

$$$$
