5ZAG_94I_U_301
  RCSB PDB08022003493D
Coordinates from PDB:5ZAG:U:301 Model:1 without hydrogens
 26 28  0  0  0  0            999 V2000
  -28.0150  -17.0720   -1.0820   C 0  0  0  0  0  0  0  0  0  0  0  0
  -26.4960  -17.5270    0.8510   C 0  0  0  0  0  0  0  0  0  0  0  0
  -27.3110  -18.0450    2.9670   C 0  0  0  0  0  0  0  0  0  0  0  0
  -28.5310  -16.8410   -3.7830   C 0  0  0  0  0  0  0  0  0  0  0  0
  -26.9320  -14.3100   -0.2730   C 0  0  0  0  0  0  0  0  0  0  0  0
  -25.8220  -13.6110    0.5230   C 0  0  0  0  0  0  0  0  0  0  0  0
  -25.0510  -12.5130   -0.2160   C 0  0  0  0  0  0  0  0  0  0  0  0
  -25.1050  -14.9660   -1.9510   C 0  0  0  0  0  0  0  0  0  0  0  0
  -25.1650  -13.5860   -2.6050   C 0  0  0  0  0  0  0  0  0  0  0  0
  -31.9270  -20.1830   -2.7070   C 0  0  0  0  0  0  0  0  0  0  0  0
  -27.6170  -16.0390   -3.1780   N 0  0  0  0  0  0  0  0  0  0  0  0
  -30.9440  -19.3040   -2.5730   N 0  0  0  0  0  0  0  0  0  0  0  0
  -32.4860  -20.6640   -1.6120   N 0  0  0  0  0  0  0  0  0  0  0  0
  -30.4340  -18.7960   -4.7340   O 0  0  0  0  0  0  0  0  0  0  0  0
  -30.2390  -18.7020   -3.5340   C 0  0  0  0  0  0  0  0  0  0  0  0
  -32.3520  -20.5620   -3.8980   N 0  0  0  0  0  0  0  0  0  0  0  0
  -29.1990  -17.7730   -3.0090   C 0  0  0  0  0  0  0  0  0  0  0  0
  -28.9120  -17.8740   -1.6930   N 0  0  0  0  0  0  0  0  0  0  0  0
  -28.7790  -16.6980   -5.1120   N 0  0  0  0  0  0  0  0  0  0  0  0
  -27.3160  -16.1380   -1.8550   C 0  0  0  0  0  0  0  0  0  0  0  0
  -27.8010  -17.3740    0.3670   C 0  0  0  0  0  0  0  0  0  0  0  0
  -26.2720  -17.8470    2.1380   N 0  0  0  0  0  0  0  0  0  0  0  0
  -28.5790  -17.9330    2.5260   N 0  0  0  0  0  0  0  0  0  0  0  0
  -28.8520  -17.6210    1.2490   C 0  0  0  0  0  0  0  0  0  0  0  0
  -26.4100  -15.1940   -1.3460   N 0  0  0  0  0  0  0  0  0  0  0  0
  -25.3650  -12.3510   -1.7030   C 0  0  0  0  0  0  0  0  0  0  0  0
 19  4  1  0  0  0  0
 14 15  2  0  0  0  0
 16 10  2  0  0  0  0
  4 11  2  0  0  0  0
  4 17  1  0  0  0  0
 15 17  1  0  0  0  0
 15 12  1  0  0  0  0
 11 20  1  0  0  0  0
 17 18  2  0  0  0  0
 10 12  1  0  0  0  0
 10 13  1  0  0  0  0
  9  8  1  0  0  0  0
  9 26  1  0  0  0  0
  8 25  1  0  0  0  0
 20 25  1  0  0  0  0
 20  1  2  0  0  0  0
 26  7  1  0  0  0  0
 18  1  1  0  0  0  0
 25  5  1  0  0  0  0
  1 21  1  0  0  0  0
  5  6  1  0  0  0  0
  7  6  1  0  0  0  0
 21  2  2  0  0  0  0
 21 24  1  0  0  0  0
  2 22  1  0  0  0  0
 24 23  2  0  0  0  0
 22  3  2  0  0  0  0
 23  3  1  0  0  0  0
M  END
>  <InstanceId>
5ZAG_94I_U_301

>  <ChemCompId>
94I

>  <PdbId>
5ZAG

>  <ChainId>
U

>  <ResidueNumber>
301

>  <InsertionCode>


>  <Model>
1

>  <AltIds>


>  <MissingHeavyAtoms>
0

>  <ObservedFormula>
C16 N9 O

>  <Name>
3-azanyl-5-(azepan-1-yl)-N-carbamimidoyl-6-pyrimidin-5-yl-pyrazine-2-carboxamide

>  <SystematicName>
3-azanyl-5-(azepan-1-yl)-~{N}-carbamimidoyl-6-pyrimidin-5-yl-pyrazine-2-carboxamide

>  <Synonyms>


>  <Type>
NON-POLYMER

>  <Formula>
C16 H21 N9 O

>  <MolecularWeight>
355.398

>  <ModifiedDate>
2018-12-14

>  <Parent>


>  <OneLetterCode>


>  <SubcomponentList>


>  <AmbiguousFlag>
N

>  <InChI>
InChI=1S/C16H21N9O/c17-13-12(15(26)24-16(18)19)22-11(10-7-20-9-21-8-10)14(23-13)25-5-3-1-2-4-6-25/h7-9H,1-6H2,(H2,17,23)(H4,18,19,24,26)

>  <InChIKey>
BIKUTIAECDVFLJ-UHFFFAOYSA-N

>  <SMILES>
[H]/N=C(\N)/NC(=O)c1c(nc(c(n1)c2cncnc2)N3CCCCCC3)N

$$$$
