1LI3_3CH_A_401
  RCSB PDB08012015233D
Coordinates from PDB:1LI3:A:401 Model:1 without hydrogens
  8  8  0  0  0  0            999 V2000
   26.7240    5.1420    3.3130   C 0  0  0  0  0  0  0  0  0  0  0  0
   27.5210    5.8410    2.4050   C 0  0  0  0  0  0  0  0  0  0  0  0
   26.4670    5.7800    4.5160   C 0  0  0  0  0  0  0  0  0  0  0  0
   28.0720    7.0990    2.6510   C 0  0  0  0  0  0  0  0  0  0  0  0
   27.0030    7.0320    4.8100   C 0  0  0  0  0  0  0  0  0  0  0  0
   27.8030    7.6930    3.8740   C 0  0  0  0  0  0  0  0  0  0  0  0
   28.3730    8.9120    4.1230   O 0  0  0  0  0  0  0  0  0  0  0  0
   25.6770    5.1440    5.4360  Cl 0  0  0  0  0  0  0  0  0  0  0  0
  1  2  2  0  0  0  0
  1  3  1  0  0  0  0
  2  4  1  0  0  0  0
  3  5  2  0  0  0  0
  3  8  1  0  0  0  0
  4  6  2  0  0  0  0
  5  6  1  0  0  0  0
  6  7  1  0  0  0  0
M  END
>  <InstanceId>
1LI3_3CH_A_401

>  <ChemCompId>
3CH

>  <PdbId>
1LI3

>  <ChainId>
A

>  <ResidueNumber>
401

>  <InsertionCode>


>  <Model>
1

>  <AltIds>


>  <MissingHeavyAtoms>
0

>  <ObservedFormula>
C6 O Cl

>  <Name>
3-CHLOROPHENOL

>  <SystematicName>
3-chlorophenol

>  <Synonyms>


>  <Type>
NON-POLYMER

>  <Formula>
C6 H5 Cl O

>  <MolecularWeight>
128.556

>  <ModifiedDate>
2011-06-04

>  <Parent>


>  <OneLetterCode>


>  <SubcomponentList>


>  <AmbiguousFlag>
N

>  <InChI>
InChI=1S/C6H5ClO/c7-5-2-1-3-6(8)4-5/h1-4,8H

>  <InChIKey>
HORNXRXVQWOLPJ-UHFFFAOYSA-N

>  <SMILES>
c1cc(cc(c1)Cl)O

$$$$
