3N3J_WWV_A_263
  RCSB PDB08012019523D
Coordinates from PDB:3N3J:A:263 Model:1 without hydrogens
 23 24  0  0  0  0            999 V2000
   -5.0880    2.1690   15.6700   C 0  0  0  0  0  0  0  0  0  0  0  0
   -5.4980   -0.4460   16.0270   N 0  0  0  0  0  0  0  0  0  0  0  0
   -7.3660    1.2150   16.5180   O 0  0  0  0  0  0  0  0  0  0  0  0
   -5.8960    0.9650   16.6410   S 0  0  0  0  0  0  0  0  0  0  0  0
   -5.7990    3.2670   15.1410   C 0  0  0  0  0  0  0  0  0  0  0  0
   -5.4030    1.0890   18.0710   O 0  0  0  0  0  0  0  0  0  0  0  0
   -5.1360    4.2520   14.3890   C 0  0  0  0  0  0  0  0  0  0  0  0
   -3.7490    4.1260   14.2030   C 0  0  0  0  0  0  0  0  0  0  0  0
   -3.0540    3.0380   14.7230   C 0  0  0  0  0  0  0  0  0  0  0  0
   -3.7050    2.0600   15.4760   C 0  0  0  0  0  0  0  0  0  0  0  0
   -2.9170    5.0450   13.4940   N 0  0  0  0  0  0  0  0  0  0  0  0
   -3.2770    6.2130   12.9800   C 0  0  0  0  0  0  0  0  0  0  0  0
   -4.4530    6.5730   12.9330   O 0  0  0  0  0  0  0  0  0  0  0  0
   -2.2520    6.9240   12.4670   N 0  0  0  0  0  0  0  0  0  0  0  0
   -2.4220    8.2090   11.9720   C 0  0  0  0  0  0  0  0  0  0  0  0
   -1.8080    9.2710   12.6480   C 0  0  0  0  0  0  0  0  0  0  0  0
   -1.9760   10.5720   12.1720   C 0  0  0  0  0  0  0  0  0  0  0  0
   -2.7370   10.7960   11.0150   C 0  0  0  0  0  0  0  0  0  0  0  0
   -3.3530    9.7290   10.3500   C 0  0  0  0  0  0  0  0  0  0  0  0
   -3.2000    8.4250   10.8280   C 0  0  0  0  0  0  0  0  0  0  0  0
   -0.9670    9.0060   13.9320   C 0  0  0  0  0  0  0  0  0  0  0  0
    0.0480   10.1280   14.2090   C 0  0  0  0  0  0  0  0  0  0  0  0
   -1.8220    8.7470   15.1880   C 0  0  0  0  0  0  0  0  0  0  0  0
  5  1  2  0  0  0  0
 10  1  1  0  0  0  0
  1  4  1  0  0  0  0
  2  4  1  0  0  0  0
  3  4  2  0  0  0  0
  4  6  2  0  0  0  0
  7  5  1  0  0  0  0
  8  7  2  0  0  0  0
 11  8  1  0  0  0  0
  8  9  1  0  0  0  0
  9 10  2  0  0  0  0
 12 11  1  0  0  0  0
 14 12  1  0  0  0  0
 13 12  2  0  0  0  0
 15 14  1  0  0  0  0
 20 15  2  0  0  0  0
 15 16  1  0  0  0  0
 17 16  2  0  0  0  0
 16 21  1  0  0  0  0
 18 17  1  0  0  0  0
 19 18  2  0  0  0  0
 19 20  1  0  0  0  0
 21 22  1  0  0  0  0
 21 23  1  0  0  0  0
M  END
>  <InstanceId>
3N3J_WWV_A_263

>  <ChemCompId>
WWV

>  <PdbId>
3N3J

>  <ChainId>
A

>  <ResidueNumber>
263

>  <InsertionCode>


>  <Model>
1

>  <AltIds>


>  <MissingHeavyAtoms>
0

>  <ObservedFormula>
C16 N3 O3 S

>  <Name>
4-({[2-(1-methylethyl)phenyl]carbamoyl}amino)benzenesulfonamide

>  <SystematicName>
1-(2-propan-2-ylphenyl)-3-(4-sulfamoylphenyl)urea

>  <Synonyms>


>  <Type>
NON-POLYMER

>  <Formula>
C16 H19 N3 O3 S

>  <MolecularWeight>
333.405

>  <ModifiedDate>
2011-06-04

>  <Parent>


>  <OneLetterCode>


>  <SubcomponentList>


>  <AmbiguousFlag>
N

>  <InChI>
InChI=1S/C16H19N3O3S/c1-11(2)14-5-3-4-6-15(14)19-16(20)18-12-7-9-13(10-8-12)23(17,21)22/h3-11H,1-2H3,(H2,17,21,22)(H2,18,19,20)

>  <InChIKey>
NCAVVYYIUQIEED-UHFFFAOYSA-N

>  <SMILES>
CC(C)c1ccccc1NC(=O)Nc2ccc(cc2)S(=O)(=O)N

$$$$
