5LVQ_2LX_A_904
  RCSB PDB08022002153D
Coordinates from PDB:5LVQ:A:904 Model:1 without hydrogens
 17 18  0  0  0  0            999 V2000
   22.2200    3.9050   55.9270   C 0  0  0  0  0  0  0  0  0  0  0  0
   21.7180    2.5420   55.9760   N 0  0  0  0  0  0  0  0  0  0  0  0
   21.7090    1.8350   57.1070   C 0  0  0  0  0  0  0  0  0  0  0  0
   21.0980    0.4530   57.0810   C 0  0  0  0  0  0  0  0  0  0  0  0
   21.1910   -0.2600   58.2810   C 0  0  0  0  0  0  0  0  0  0  0  0
   20.8110   -1.5970   58.3590   C 0  0  0  0  0  0  0  0  0  0  0  0
   20.3170   -2.2560   57.2420   C 0  0  0  0  0  0  0  0  0  0  0  0
   20.1670   -1.5790   56.0430   C 0  0  0  0  0  0  0  0  0  0  0  0
   20.5290   -0.2170   55.9670   C 0  0  0  0  0  0  0  0  0  0  0  0
   20.2520    0.5740   54.8690   O 0  0  0  0  0  0  0  0  0  0  0  0
   20.0470   -0.0900   53.5790   C 0  0  0  0  0  0  0  0  0  0  0  0
   21.3890   -0.1670   52.8920   C 0  0  0  0  0  0  0  0  0  0  0  0
   21.2170   -0.7220   51.4930   C 0  0  0  0  0  0  0  0  0  0  0  0
   20.3200    0.0690   50.7290   O 0  0  0  0  0  0  0  0  0  0  0  0
   19.0330    0.1230   51.3810   C 0  0  0  0  0  0  0  0  0  0  0  0
   19.0490    0.7190   52.7740   C 0  0  0  0  0  0  0  0  0  0  0  0
   22.1500    2.3100   58.1560   O 0  0  0  0  0  0  0  0  0  0  0  0
 13 12  1  0  0  0  0
 13 14  1  0  0  0  0
 12 11  1  0  0  0  0
 11 10  1  0  0  0  0
 11 16  1  0  0  0  0
 14 15  1  0  0  0  0
 10  9  1  0  0  0  0
  1  2  1  0  0  0  0
  2  3  1  0  0  0  0
  9  8  2  0  0  0  0
  9  4  1  0  0  0  0
  8  7  1  0  0  0  0
  3  4  1  0  0  0  0
  3 17  2  0  0  0  0
  4  5  2  0  0  0  0
 15 16  1  0  0  0  0
  7  6  2  0  0  0  0
  5  6  1  0  0  0  0
M  END
>  <InstanceId>
5LVQ_2LX_A_904

>  <ChemCompId>
2LX

>  <PdbId>
5LVQ

>  <ChainId>
A

>  <ResidueNumber>
904

>  <InsertionCode>


>  <Model>
1

>  <AltIds>


>  <MissingHeavyAtoms>
0

>  <ObservedFormula>
C13 N O3

>  <Name>
N-methyl-2-(tetrahydro-2H-pyran-4-yloxy)benzamide

>  <SystematicName>
N-methyl-2-(oxan-4-yloxy)benzamide

>  <Synonyms>


>  <Type>
NON-POLYMER

>  <Formula>
C13 H17 N O3

>  <MolecularWeight>
235.279

>  <ModifiedDate>
2013-12-20

>  <Parent>


>  <OneLetterCode>


>  <SubcomponentList>


>  <AmbiguousFlag>
N

>  <InChI>
InChI=1S/C13H17NO3/c1-14-13(15)11-4-2-3-5-12(11)17-10-6-8-16-9-7-10/h2-5,10H,6-9H2,1H3,(H,14,15)

>  <InChIKey>
WZBIMVSWUWZIHN-UHFFFAOYSA-N

>  <SMILES>
CNC(=O)c1ccccc1OC2CCOCC2

$$$$
