2Z4O_065_B_404
  RCSB PDB08012018263D
Coordinates from PDB:2Z4O:B:404 Model:1 without hydrogens
 40 44  0  0  0  0            999 V2000
   20.8150   27.5840   14.9490   C 0  0  0  0  0  0  0  0  0  0  0  0
   21.7420   28.5790   14.7800   O 0  0  0  0  0  0  0  0  0  0  0  0
   22.9230   28.1220   15.3260   C 0  0  0  0  0  0  0  0  0  0  0  0
   22.7600   26.8340   15.7700   O 0  0  0  0  0  0  0  0  0  0  0  0
   21.4380   26.5200   15.5880   C 0  0  0  0  0  0  0  0  0  0  0  0
   20.6940   25.3930   15.8970   C 0  0  0  0  0  0  0  0  0  0  0  0
   19.3320   25.3180   15.5980   C 0  0  0  0  0  0  0  0  0  0  0  0
   18.7270   26.3840   14.9700   C 0  0  0  0  0  0  0  0  0  0  0  0
   19.4590   27.5160   14.6390   C 0  0  0  0  0  0  0  0  0  0  0  0
   18.4410   23.8760   16.0410   S 0  0  0  0  0  0  0  0  0  0  0  0
   17.3270   23.6190   15.0930   O 0  0  0  0  0  0  0  0  0  0  0  0
   19.4260   22.7510   16.1670   O 0  0  0  0  0  0  0  0  0  0  0  0
   17.8000   24.0950   17.5370   N 0  0  0  0  0  0  0  0  0  0  0  0
   18.7450   24.4820   18.5680   C 0  0  0  0  0  0  0  0  0  0  0  0
   18.4200   23.8630   19.9310   C 0  0  0  0  0  0  0  0  0  0  0  0
   18.3370   22.3480   19.8610   C 0  0  0  0  0  0  0  0  0  0  0  0
   19.4830   24.2590   20.9660   C 0  0  0  0  0  0  0  0  0  0  0  0
   16.5610   24.8690   17.5340   C 0  0  0  0  0  0  0  0  0  0  0  0
   15.4150   23.9930   18.0420   C 0  0  0  0  0  0  0  0  0  0  0  0
   14.2420   24.7490   18.3230   O 0  0  0  0  0  0  0  0  0  0  0  0
   15.1050   22.8310   17.0990   C 0  0  0  0  0  0  0  0  0  0  0  0
   14.2160   21.9200   17.8200   N 0  0  0  0  0  0  0  0  0  0  0  0
   14.4610   20.6740   18.1870   C 0  0  0  0  0  0  0  0  0  0  0  0
   15.5120   20.0920   17.9210   O 0  0  0  0  0  0  0  0  0  0  0  0
   13.4370   20.0990   18.8730   O 0  0  0  0  0  0  0  0  0  0  0  0
   13.5830   18.6990   19.0760   C 0  0  0  0  0  0  0  0  0  0  0  0
   13.0000   18.3800   20.4560   C 0  0  0  0  0  0  0  0  0  0  0  0
   11.5790   18.5010   20.2590   O 0  0  0  0  0  0  0  0  0  0  0  0
   11.2920   18.0120   18.9550   C 0  0  0  0  0  0  0  0  0  0  0  0
   10.4050   18.8880   18.2630   O 0  0  0  0  0  0  0  0  0  0  0  0
   11.1640   19.6190   17.3190   C 0  0  0  0  0  0  0  0  0  0  0  0
   12.2510   18.6250   16.8700   C 0  0  0  0  0  0  0  0  0  0  0  0
   12.5990   17.9370   18.1860   C 0  0  0  0  0  0  0  0  0  0  0  0
   14.3990   23.2650   15.8210   C 0  0  0  0  0  0  0  0  0  0  0  0
   12.6910   21.7030   14.7750   C 0  0  0  0  0  0  0  0  0  0  0  0
   12.3370   20.5890   14.0150   C 0  0  0  0  0  0  0  0  0  0  0  0
   13.3090   19.8420   13.3610   C 0  0  0  0  0  0  0  0  0  0  0  0
   14.6380   20.2320   13.5140   C 0  0  0  0  0  0  0  0  0  0  0  0
   14.9880   21.3230   14.2930   C 0  0  0  0  0  0  0  0  0  0  0  0
   14.0140   22.0730   14.9470   C 0  0  0  0  0  0  0  0  0  0  0  0
  1  9  1  0  0  0  0
  1  2  1  0  0  0  0
  1  5  2  0  0  0  0
  2  3  1  0  0  0  0
  3  4  1  0  0  0  0
  4  5  1  0  0  0  0
  5  6  1  0  0  0  0
  6  7  2  0  0  0  0
  7 10  1  0  0  0  0
  7  8  1  0  0  0  0
  8  9  2  0  0  0  0
 10 13  1  0  0  0  0
 10 11  2  0  0  0  0
 10 12  2  0  0  0  0
 13 14  1  0  0  0  0
 13 18  1  0  0  0  0
 14 15  1  0  0  0  0
 15 16  1  0  0  0  0
 15 17  1  0  0  0  0
 18 19  1  0  0  0  0
 19 20  1  0  0  0  0
 19 21  1  0  0  0  0
 21 34  1  0  0  0  0
 21 22  1  0  0  0  0
 22 23  1  0  0  0  0
 23 24  2  0  0  0  0
 23 25  1  0  0  0  0
 25 26  1  0  0  0  0
 26 27  1  0  0  0  0
 26 33  1  0  0  0  0
 27 28  1  0  0  0  0
 28 29  1  0  0  0  0
 29 30  1  0  0  0  0
 29 33  1  0  0  0  0
 30 31  1  0  0  0  0
 31 32  1  0  0  0  0
 32 33  1  0  0  0  0
 34 40  1  0  0  0  0
 35 40  1  0  0  0  0
 35 36  2  0  0  0  0
 36 37  1  0  0  0  0
 37 38  2  0  0  0  0
 38 39  1  0  0  0  0
 39 40  2  0  0  0  0
M  END
>  <InstanceId>
2Z4O_065_B_404

>  <ChemCompId>
065

>  <PdbId>
2Z4O

>  <ChainId>
B

>  <ResidueNumber>
404

>  <InsertionCode>


>  <Model>
1

>  <AltIds>


>  <MissingHeavyAtoms>
0

>  <ObservedFormula>
C28 N2 O9 S

>  <Name>
(3R,3AS,6AR)-HEXAHYDROFURO[2,3-B]FURAN-3-YL(2S,3R)-3-HYDROXY-4-(N-ISOBUTYLBENZO[D][1,3]DIOXOLE-5-SULFONAMIDO)-1-PHENYLBUTAN-2-YLCARBAMATE

>  <SystematicName>
[(3R,3aS,6aR)-2,3,3a,4,5,6a-hexahydrofuro[5,4-b]furan-3-yl] N-[(2S,3R)-4-(1,3-benzodioxol-5-ylsulfonyl-(2-methylpropyl)amino)-3-hydroxy-1-phenyl-butan-2-yl]carbamate

>  <Synonyms>
RL-98065; [(1R,5S,6R)-2,8-DIOXABICYCLO[3.3.0]OCT-6-YL]N-[(2S,3R)-4-[(3,4-METHYLENEDIOXYPHENYL)SULFONYL-(2-METHYLPROPYL)AMINO]-3-HYDROXY-1-PHENYL-BUTAN-2-YL] CARBAMATE

>  <Type>
NON-POLYMER

>  <Formula>
C28 H36 N2 O9 S

>  <MolecularWeight>
576.658

>  <ModifiedDate>
2020-05-26

>  <Parent>


>  <OneLetterCode>


>  <SubcomponentList>


>  <AmbiguousFlag>


>  <InChI>
InChI=1S/C28H36N2O9S/c1-18(2)14-30(40(33,34)20-8-9-24-25(13-20)38-17-37-24)15-23(31)22(12-19-6-4-3-5-7-19)29-28(32)39-26-16-36-27-21(26)10-11-35-27/h3-9,13,18,21-23,26-27,31H,10-12,14-17H2,1-2H3,(H,29,32)/t21-,22-,23+,26-,27+/m0/s1

>  <InChIKey>
HNEIRZJZTYYDES-VPZBFSRCSA-N

>  <SMILES>
CC(C)C[N@@](C[C@H]([C@H](Cc1ccccc1)NC(=O)O[C@H]2CO[C@@H]3[C@H]2CCO3)O)S(=O)(=O)c4ccc5c(c4)OCO5

$$$$
