4G0Q_C5P_A_801
  RCSB PDB08012021463D
Coordinates from PDB:4G0Q:A:801 Model:1 without hydrogens
 21 22  0  0  0  0            999 V2000
   25.6290   34.4080   36.8730   O 0  0  0  0  0  0  0  0  0  0  0  0
   25.4810   34.5760   38.4390   P 0  0  0  0  0  0  0  0  0  0  0  0
   23.9140   34.3530   38.6060   O 0  0  0  0  0  0  0  0  0  0  0  0
   25.9140   35.9330   38.8440   O 0  0  0  0  0  0  0  0  0  0  0  0
   26.2960   33.3810   39.1870   O 0  0  0  0  0  0  0  0  0  0  0  0
   27.6120   33.5760   39.7320   C 0  0  0  0  0  0  0  0  0  0  0  0
   28.2010   32.1930   40.2080   C 0  0  0  0  0  0  0  0  0  0  0  0
   27.7720   31.0690   39.4110   O 0  0  0  0  0  0  0  0  0  0  0  0
   29.7320   32.0450   40.5230   C 0  0  0  0  0  0  0  0  0  0  0  0
   30.2180   32.2160   41.7970   O 0  0  0  0  0  0  0  0  0  0  0  0
   30.1890   30.9060   39.5380   C 0  0  0  0  0  0  0  0  0  0  0  0
   31.3570   30.2220   39.7860   O 0  0  0  0  0  0  0  0  0  0  0  0
   28.8430   30.1550   39.1380   C 0  0  0  0  0  0  0  0  0  0  0  0
   28.6180   29.4410   37.8430   N 0  0  0  0  0  0  0  0  0  0  0  0
   28.4810   28.0230   37.6600   C 0  0  0  0  0  0  0  0  0  0  0  0
   28.3950   27.4610   36.3500   N 0  0  0  0  0  0  0  0  0  0  0  0
   28.5410   28.2170   35.2950   C 0  0  0  0  0  0  0  0  0  0  0  0
   28.8200   29.6250   35.4060   C 0  0  0  0  0  0  0  0  0  0  0  0
   28.8360   30.1830   36.6530   C 0  0  0  0  0  0  0  0  0  0  0  0
   28.2610   27.3520   38.6620   O 0  0  0  0  0  0  0  0  0  0  0  0
   28.3620   27.6780   33.9620   N 0  0  0  0  0  0  0  0  0  0  0  0
  1  2  1  0  0  0  0
  2  3  2  0  0  0  0
  2  4  1  0  0  0  0
  2  5  1  0  0  0  0
  5  6  1  0  0  0  0
  6  7  1  0  0  0  0
  7  8  1  0  0  0  0
  7  9  1  0  0  0  0
  8 13  1  0  0  0  0
  9 10  1  0  0  0  0
  9 11  1  0  0  0  0
 11 12  1  0  0  0  0
 11 13  1  0  0  0  0
 13 14  1  0  0  0  0
 14 15  1  0  0  0  0
 14 19  1  0  0  0  0
 15 16  1  0  0  0  0
 15 20  2  0  0  0  0
 16 17  2  0  0  0  0
 17 18  1  0  0  0  0
 17 21  1  0  0  0  0
 18 19  2  0  0  0  0
M  END
>  <InstanceId>
4G0Q_C5P_A_801

>  <ChemCompId>
C5P

>  <PdbId>
4G0Q

>  <ChainId>
A

>  <ResidueNumber>
801

>  <InsertionCode>


>  <Model>
1

>  <AltIds>


>  <MissingHeavyAtoms>
0

>  <ObservedFormula>
C9 N3 O8 P

>  <Name>
CYTIDINE-5'-MONOPHOSPHATE

>  <SystematicName>
[(2R,3S,4R,5R)-5-(4-amino-2-oxo-pyrimidin-1-yl)-3,4-dihydroxy-oxolan-2-yl]methyl dihydrogen phosphate

>  <Synonyms>


>  <Type>
NON-POLYMER

>  <Formula>
C9 H14 N3 O8 P

>  <MolecularWeight>
323.197

>  <ModifiedDate>
2011-06-04

>  <Parent>


>  <OneLetterCode>


>  <SubcomponentList>


>  <AmbiguousFlag>
N

>  <InChI>
InChI=1S/C9H14N3O8P/c10-5-1-2-12(9(15)11-5)8-7(14)6(13)4(20-8)3-19-21(16,17)18/h1-2,4,6-8,13-14H,3H2,(H2,10,11,15)(H2,16,17,18)/t4-,6-,7-,8-/m1/s1

>  <InChIKey>
IERHLVCPSMICTF-XVFCMESISA-N

>  <SMILES>
C1=CN(C(=O)N=C1N)[C@H]2[C@@H]([C@@H]([C@H](O2)COP(=O)(O)O)O)O

$$$$
