3LZZ_GDP_A_173
  RCSB PDB08012019453D
Coordinates from PDB:3LZZ:A:173 Model:1 without hydrogens
 28 30  0  0  0  0            999 V2000
  -24.9580   -7.4180   15.6940   P 0  0  0  0  0  0  0  0  0  0  0  0
  -26.1250   -8.3610   15.7750   O 0  0  0  0  0  0  0  0  0  0  0  0
  -25.4530   -6.0140   15.4630   O 0  0  0  0  0  0  0  0  0  0  0  0
  -24.2230   -7.4770   16.9940   O 0  0  0  0  0  0  0  0  0  0  0  0
  -24.0090   -7.9040   14.4980   O 0  0  0  0  0  0  0  0  0  0  0  0
  -24.6460   -8.7390   13.2770   P 0  0  0  0  0  0  0  0  0  0  0  0
  -26.1230   -8.4870   13.2390   O 0  0  0  0  0  0  0  0  0  0  0  0
  -24.2690  -10.2020   13.2840   O 0  0  0  0  0  0  0  0  0  0  0  0
  -24.0910   -8.1220   11.9440   O 0  0  0  0  0  0  0  0  0  0  0  0
  -25.1200   -7.8100   11.0450   C 0  0  0  0  0  0  0  0  0  0  0  0
  -24.7040   -8.2670    9.6800   C 0  0  0  0  0  0  0  0  0  0  0  0
  -25.8750   -8.4550    8.9100   O 0  0  0  0  0  0  0  0  0  0  0  0
  -23.8540   -7.2480    8.9450   C 0  0  0  0  0  0  0  0  0  0  0  0
  -22.4920   -7.6880    8.8420   O 0  0  0  0  0  0  0  0  0  0  0  0
  -24.5000   -7.2160    7.5790   C 0  0  0  0  0  0  0  0  0  0  0  0
  -23.4900   -7.3970    6.6310   O 0  0  0  0  0  0  0  0  0  0  0  0
  -25.3390   -8.4550    7.6210   C 0  0  0  0  0  0  0  0  0  0  0  0
  -26.2450   -8.7170    6.5030   N 0  0  0  0  0  0  0  0  0  0  0  0
  -27.4640   -9.2350    6.4740   C 0  0  0  0  0  0  0  0  0  0  0  0
  -27.8770   -9.3510    5.2030   N 0  0  0  0  0  0  0  0  0  0  0  0
  -26.8930   -8.9430    4.3990   C 0  0  0  0  0  0  0  0  0  0  0  0
  -26.6010   -8.7720    2.9540   C 0  0  0  0  0  0  0  0  0  0  0  0
  -27.3740   -9.0550    2.0730   O 0  0  0  0  0  0  0  0  0  0  0  0
  -25.4460   -8.2800    2.6090   N 0  0  0  0  0  0  0  0  0  0  0  0
  -24.5470   -7.9480    3.5320   C 0  0  0  0  0  0  0  0  0  0  0  0
  -23.3610   -7.4530    3.1980   N 0  0  0  0  0  0  0  0  0  0  0  0
  -24.7270   -8.0730    4.8250   N 0  0  0  0  0  0  0  0  0  0  0  0
  -25.8460   -8.5370    5.2990   C 0  0  0  0  0  0  0  0  0  0  0  0
  1  2  2  0  0  0  0
  1  3  1  0  0  0  0
  1  4  1  0  0  0  0
  1  5  1  0  0  0  0
  5  6  1  0  0  0  0
  6  7  2  0  0  0  0
  6  8  1  0  0  0  0
  6  9  1  0  0  0  0
  9 10  1  0  0  0  0
 10 11  1  0  0  0  0
 11 12  1  0  0  0  0
 11 13  1  0  0  0  0
 12 17  1  0  0  0  0
 13 14  1  0  0  0  0
 13 15  1  0  0  0  0
 15 16  1  0  0  0  0
 15 17  1  0  0  0  0
 17 18  1  0  0  0  0
 18 19  1  0  0  0  0
 18 28  1  0  0  0  0
 19 20  2  0  0  0  0
 20 21  1  0  0  0  0
 21 22  1  0  0  0  0
 21 28  2  0  0  0  0
 22 23  2  0  0  0  0
 22 24  1  0  0  0  0
 24 25  1  0  0  0  0
 25 26  1  0  0  0  0
 25 27  2  0  0  0  0
 27 28  1  0  0  0  0
M  END
>  <InstanceId>
3LZZ_GDP_A_173

>  <ChemCompId>
GDP

>  <PdbId>
3LZZ

>  <ChainId>
A

>  <ResidueNumber>
173

>  <InsertionCode>


>  <Model>
1

>  <AltIds>


>  <MissingHeavyAtoms>
0

>  <ObservedFormula>
C10 N5 O11 P2

>  <Name>
GUANOSINE-5'-DIPHOSPHATE

>  <SystematicName>
[(2R,3S,4R,5R)-5-(2-azanyl-6-oxidanylidene-1H-purin-9-yl)-3,4-bis(oxidanyl)oxolan-2-yl]methyl phosphono hydrogen phosphate

>  <Synonyms>


>  <Type>
RNA LINKING

>  <Formula>
C10 H15 N5 O11 P2

>  <MolecularWeight>
443.201

>  <ModifiedDate>
2014-05-12

>  <Parent>
G

>  <OneLetterCode>
G

>  <SubcomponentList>


>  <AmbiguousFlag>
N

>  <InChI>
InChI=1S/C10H15N5O11P2/c11-10-13-7-4(8(18)14-10)12-2-15(7)9-6(17)5(16)3(25-9)1-24-28(22,23)26-27(19,20)21/h2-3,5-6,9,16-17H,1H2,(H,22,23)(H2,19,20,21)(H3,11,13,14,18)/t3-,5-,6-,9-/m1/s1

>  <InChIKey>
QGWNDRXFNXRZMB-UUOKFMHZSA-N

>  <SMILES>
c1nc2c(n1[C@H]3[C@@H]([C@@H]([C@H](O3)CO[P@](=O)(O)OP(=O)(O)O)O)O)N=C(NC2=O)N

$$$$
