4DEL_PGH_A_404
  RCSB PDB08012021283D
Coordinates from PDB:4DEL:A:404 Model:1 without hydrogens
 10  9  0  0  0  0            999 V2000
    8.7110   41.3500   22.3350   C 0  0  0  0  0  0  0  0  0  0  0  0
    7.7240   41.5430   21.2300   C 0  0  0  0  0  0  0  0  0  0  0  0
    9.0290   42.3600   23.1140   N 0  0  0  0  0  0  0  0  0  0  0  0
    9.9230   42.1490   24.1330   O 0  0  0  0  0  0  0  0  0  0  0  0
    9.2650   40.1010   22.5080   O 0  0  0  0  0  0  0  0  0  0  0  0
    8.2230   40.9490   20.0440   O 0  0  0  0  0  0  0  0  0  0  0  0
    7.9490   40.3910   17.5730   O 0  0  0  0  0  0  0  0  0  0  0  0
    5.9910   41.0720   18.9180   O 0  0  0  0  0  0  0  0  0  0  0  0
    7.7510   42.7720   18.3540   O 0  0  0  0  0  0  0  0  0  0  0  0
    7.4600   41.3110   18.6620   P 0  0  0  0  0  0  0  0  0  0  0  0
  1  2  1  0  0  0  0
  1  3  1  0  0  0  0
  1  5  2  0  0  0  0
  2  6  1  0  0  0  0
  3  4  1  0  0  0  0
  6 10  1  0  0  0  0
  7 10  2  0  0  0  0
  8 10  1  0  0  0  0
  9 10  1  0  0  0  0
M  END
>  <InstanceId>
4DEL_PGH_A_404

>  <ChemCompId>
PGH

>  <PdbId>
4DEL

>  <ChainId>
A

>  <ResidueNumber>
404

>  <InsertionCode>


>  <Model>
1

>  <AltIds>


>  <MissingHeavyAtoms>
0

>  <ObservedFormula>
C2 N O6 P

>  <Name>
PHOSPHOGLYCOLOHYDROXAMIC ACID

>  <SystematicName>
[2-(hydroxyamino)-2-oxo-ethyl] dihydrogen phosphate

>  <Synonyms>


>  <Type>
NON-POLYMER

>  <Formula>
C2 H6 N O6 P

>  <MolecularWeight>
171.046

>  <ModifiedDate>
2011-06-04

>  <Parent>


>  <OneLetterCode>


>  <SubcomponentList>


>  <AmbiguousFlag>
N

>  <InChI>
InChI=1S/C2H6NO6P/c4-2(3-5)1-9-10(6,7)8/h5H,1H2,(H,3,4)(H2,6,7,8)

>  <InChIKey>
BAXHHWZKQZIJID-UHFFFAOYSA-N

>  <SMILES>
C(C(=O)NO)OP(=O)(O)O

$$$$
