3V2P_STE_A_1
  RCSB PDB08012020453D
Coordinates from PDB:3V2P:A:1 Model:1 without hydrogens
 20 19  0  0  0  0            999 V2000
    0.2880   -0.1900   11.3940   C 0  0  0  0  0  0  0  0  0  0  0  0
   -0.4980   -1.1340   11.5470   O 0  0  0  0  0  0  0  0  0  0  0  0
    0.0240    0.9440   11.8210   O 0  0  0  0  0  0  0  0  0  0  0  0
    1.5920   -0.4530   10.6650   C 0  0  0  0  0  0  0  0  0  0  0  0
    1.4520   -0.6400    9.1670   C 0  0  0  0  0  0  0  0  0  0  0  0
    2.7800   -0.9010    8.4810   C 0  0  0  0  0  0  0  0  0  0  0  0
    3.4780    0.3800    8.0480   C 0  0  0  0  0  0  0  0  0  0  0  0
    3.7600    0.4540    6.5570   C 0  0  0  0  0  0  0  0  0  0  0  0
    5.1320   -0.1450    6.2240   C 0  0  0  0  0  0  0  0  0  0  0  0
    5.4150   -0.0660    4.7200   C 0  0  0  0  0  0  0  0  0  0  0  0
    6.8680    0.2390    4.4270   C 0  0  0  0  0  0  0  0  0  0  0  0
    7.1930    0.3320    2.9540   C 0  0  0  0  0  0  0  0  0  0  0  0
    8.6780    0.3710    2.6640   C 0  0  0  0  0  0  0  0  0  0  0  0
    8.9130    1.1280    1.3650   C 0  0  0  0  0  0  0  0  0  0  0  0
    9.6380    0.2380    0.3740   C 0  0  0  0  0  0  0  0  0  0  0  0
   11.0580    0.7150    0.1480   C 0  0  0  0  0  0  0  0  0  0  0  0
   11.5800    0.2950   -1.2200   C 0  0  0  0  0  0  0  0  0  0  0  0
   12.4750    1.3870   -1.8020   C 0  0  0  0  0  0  0  0  0  0  0  0
   12.7610    1.2980   -3.3260   C 0  0  0  0  0  0  0  0  0  0  0  0
   14.0090    0.6510   -3.9020   C 0  0  0  0  0  0  0  0  0  0  0  0
  1  2  2  0  0  0  0
  1  3  1  0  0  0  0
  1  4  1  0  0  0  0
  4  5  1  0  0  0  0
  5  6  1  0  0  0  0
  6  7  1  0  0  0  0
  7  8  1  0  0  0  0
  8  9  1  0  0  0  0
  9 10  1  0  0  0  0
 10 11  1  0  0  0  0
 11 12  1  0  0  0  0
 12 13  1  0  0  0  0
 13 14  1  0  0  0  0
 14 15  1  0  0  0  0
 15 16  1  0  0  0  0
 16 17  1  0  0  0  0
 17 18  1  0  0  0  0
 18 19  1  0  0  0  0
 19 20  1  0  0  0  0
M  END
>  <InstanceId>
3V2P_STE_A_1

>  <ChemCompId>
STE

>  <PdbId>
3V2P

>  <ChainId>
A

>  <ResidueNumber>
1

>  <InsertionCode>


>  <Model>
1

>  <AltIds>


>  <MissingHeavyAtoms>
0

>  <ObservedFormula>
C18 O2

>  <Name>
STEARIC ACID

>  <SystematicName>
octadecanoic acid

>  <Synonyms>


>  <Type>
NON-POLYMER

>  <Formula>
C18 H36 O2

>  <MolecularWeight>
284.477

>  <ModifiedDate>
2011-06-04

>  <Parent>


>  <OneLetterCode>


>  <SubcomponentList>


>  <AmbiguousFlag>
N

>  <InChI>
InChI=1S/C18H36O2/c1-2-3-4-5-6-7-8-9-10-11-12-13-14-15-16-17-18(19)20/h2-17H2,1H3,(H,19,20)

>  <InChIKey>
QIQXTHQIDYTFRH-UHFFFAOYSA-N

>  <SMILES>
CCCCCCCCCCCCCCCCCC(=O)O

$$$$
