2NSJ_C2R_A_242
  RCSB PDB08012017353D
Coordinates from PDB:2NSJ:A:242 Model:1 without hydrogens
 22 23  0  0  0  0            999 V2000
   15.5640  -11.8810   -9.3190   P 0  0  0  0  0  0  0  0  0  0  0  0
   14.3970  -11.6720   -8.2320   O 0  0  0  0  0  0  0  0  0  0  0  0
   16.5400  -12.9080   -8.8910   O 0  0  0  0  0  0  0  0  0  0  0  0
   16.2460  -10.4420   -9.5460   O 0  0  0  0  0  0  0  0  0  0  0  0
   14.8440  -12.2660  -10.7060   O 0  0  0  0  0  0  0  0  0  0  0  0
   13.1750  -14.2940  -13.1020   C 0  0  0  0  0  0  0  0  0  0  0  0
   12.1660  -15.1680  -13.6140   O 0  0  0  0  0  0  0  0  0  0  0  0
   12.5560  -13.1890  -12.2440   C 0  0  0  0  0  0  0  0  0  0  0  0
   11.1950  -12.9750  -12.6260   O 0  0  0  0  0  0  0  0  0  0  0  0
   14.0040  -11.3230  -11.3740   C 0  0  0  0  0  0  0  0  0  0  0  0
   13.3950  -11.9630  -12.6220   C 0  0  0  0  0  0  0  0  0  0  0  0
   14.4280  -12.4540  -13.4930   O 0  0  0  0  0  0  0  0  0  0  0  0
   13.7390  -13.4570  -14.2480   C 0  0  0  0  0  0  0  0  0  0  0  0
   14.6400  -14.3110  -15.0520   N 0  0  0  0  0  0  0  0  0  0  0  0
   14.5680  -14.5100  -16.3640   C 0  0  0  0  0  0  0  0  0  0  0  0
   15.4910  -15.4970  -16.6800   C 0  0  0  0  0  0  0  0  0  0  0  0
   16.1150  -15.8450  -15.5590   N 0  0  0  0  0  0  0  0  0  0  0  0
   15.5900  -15.1150  -14.5760   C 0  0  0  0  0  0  0  0  0  0  0  0
   13.8350  -13.8080  -17.2220   N 0  0  0  0  0  0  0  0  0  0  0  0
   15.6850  -16.1390  -18.0540   C 0  0  0  0  0  0  0  0  0  0  0  0
   14.9580  -15.7400  -18.9890   O 0  0  0  0  0  0  0  0  0  0  0  0
   16.5450  -17.0400  -18.1630   O 0  0  0  0  0  0  0  0  0  0  0  0
  1  2  2  0  0  0  0
  1  3  1  0  0  0  0
  1  4  1  0  0  0  0
  1  5  1  0  0  0  0
  5 10  1  0  0  0  0
  6  7  1  0  0  0  0
  6  8  1  0  0  0  0
  6 13  1  0  0  0  0
  8  9  1  0  0  0  0
  8 11  1  0  0  0  0
 10 11  1  0  0  0  0
 11 12  1  0  0  0  0
 12 13  1  0  0  0  0
 13 14  1  0  0  0  0
 14 15  1  0  0  0  0
 14 18  1  0  0  0  0
 15 16  2  0  0  0  0
 15 19  1  0  0  0  0
 16 17  1  0  0  0  0
 16 20  1  0  0  0  0
 17 18  2  0  0  0  0
 20 21  1  0  0  0  0
 20 22  2  0  0  0  0
M  END
>  <InstanceId>
2NSJ_C2R_A_242

>  <ChemCompId>
C2R

>  <PdbId>
2NSJ

>  <ChainId>
A

>  <ResidueNumber>
242

>  <InsertionCode>


>  <Model>
1

>  <AltIds>


>  <MissingHeavyAtoms>
0

>  <ObservedFormula>
C9 N3 O9 P

>  <Name>
5-AMINO-1-(5-O-PHOSPHONO-BETA-D-RIBOFURANOSYL)-1H-IMIDAZOLE-4-CARBOXYLIC ACID

>  <SystematicName>
5-amino-1-[(2R,3R,4S,5R)-3,4-dihydroxy-5-(phosphonooxymethyl)oxolan-2-yl]imidazole-4-carboxylic acid

>  <Synonyms>
CAIR; 4-CARBOXY-5-AMINOIMIDAZOLE RIBONUCLEOTIDE

>  <Type>
NON-POLYMER

>  <Formula>
C9 H14 N3 O9 P

>  <MolecularWeight>
339.196

>  <ModifiedDate>
2020-05-27

>  <Parent>


>  <OneLetterCode>


>  <SubcomponentList>


>  <AmbiguousFlag>


>  <InChI>
InChI=1S/C9H14N3O9P/c10-7-4(9(15)16)11-2-12(7)8-6(14)5(13)3(21-8)1-20-22(17,18)19/h2-3,5-6,8,13-14H,1,10H2,(H,15,16)(H2,17,18,19)/t3-,5-,6-,8-/m1/s1

>  <InChIKey>
XFVULMDJZXYMSG-ZIYNGMLESA-N

>  <SMILES>
c1nc(c(n1[C@H]2[C@@H]([C@@H]([C@H](O2)COP(=O)(O)O)O)O)N)C(=O)O

$$$$
