1L83_BNZ_A_400
  RCSB PDB08012015223D
Coordinates from PDB:1L83:A:400 Model:1 without hydrogens
  6  6  0  0  0  0            999 V2000
   26.4080    5.0860    3.5120   C 0  0  0  0  0  0  0  0  0  0  0  0
   27.3850    5.8810    2.9280   C 0  0  0  0  0  0  0  0  0  0  0  0
   27.8910    6.9730    3.6200   C 0  0  0  0  0  0  0  0  0  0  0  0
   27.4410    7.2400    4.9130   C 0  0  0  0  0  0  0  0  0  0  0  0
   26.4900    6.4180    5.5200   C 0  0  0  0  0  0  0  0  0  0  0  0
   25.9570    5.3520    4.8050   C 0  0  0  0  0  0  0  0  0  0  0  0
  1  2  2  0  0  0  0
  1  6  1  0  0  0  0
  2  3  1  0  0  0  0
  3  4  2  0  0  0  0
  4  5  1  0  0  0  0
  5  6  2  0  0  0  0
M  END
>  <InstanceId>
1L83_BNZ_A_400

>  <ChemCompId>
BNZ

>  <PdbId>
1L83

>  <ChainId>
A

>  <ResidueNumber>
400

>  <InsertionCode>


>  <Model>
1

>  <AltIds>


>  <MissingHeavyAtoms>
0

>  <ObservedFormula>
C6

>  <Name>
BENZENE

>  <SystematicName>
benzene

>  <Synonyms>


>  <Type>
NON-POLYMER

>  <Formula>
C6 H6

>  <MolecularWeight>
78.112

>  <ModifiedDate>
2011-06-04

>  <Parent>


>  <OneLetterCode>


>  <SubcomponentList>


>  <AmbiguousFlag>
N

>  <InChI>
InChI=1S/C6H6/c1-2-4-6-5-3-1/h1-6H

>  <InChIKey>
UHOVQNZJYSORNB-UHFFFAOYSA-N

>  <SMILES>
c1ccccc1

$$$$
