4DER_AGI_A_201
  RCSB PDB08012021283D
Coordinates from PDB:4DER:A:201 Model:1 without hydrogens
 20 22  0  0  0  0            999 V2000
   21.3330   43.7480   40.2840   C 0  0  0  0  0  0  0  0  0  0  0  0
   21.3530   43.7550   41.6360   C 0  0  0  0  0  0  0  0  0  0  0  0
   21.5660   42.5640   42.2960   C 0  0  0  0  0  0  0  0  0  0  0  0
   21.5830   42.5640   43.6220   O 0  0  0  0  0  0  0  0  0  0  0  0
   21.7630   41.3710   41.6380   C 0  0  0  0  0  0  0  0  0  0  0  0
   21.7480   41.3740   40.2870   C 0  0  0  0  0  0  0  0  0  0  0  0
   21.5350   42.5590   39.6120   C 0  0  0  0  0  0  0  0  0  0  0  0
   21.5140   42.5330   38.2550   C 0  0  0  0  0  0  0  0  0  0  0  0
   22.5040   43.1280   37.5660   O 0  0  0  0  0  0  0  0  0  0  0  0
   20.4750   41.8780   37.6310   C 0  0  0  0  0  0  0  0  0  0  0  0
   20.4370   41.7810   36.2740   C 0  0  0  0  0  0  0  0  0  0  0  0
   19.5170   41.1780   35.7260   O 0  0  0  0  0  0  0  0  0  0  0  0
   21.4160   42.4240   35.5700   C 0  0  0  0  0  0  0  0  0  0  0  0
   22.4160   43.0940   36.2330   C 0  0  0  0  0  0  0  0  0  0  0  0
   23.3890   43.7610   35.5380   C 0  0  0  0  0  0  0  0  0  0  0  0
   23.3350   43.7410   34.1650   C 0  0  0  0  0  0  0  0  0  0  0  0
   24.2980   44.3760   33.5140   O 0  0  0  0  0  0  0  0  0  0  0  0
   22.3280   43.0680   33.4920   C 0  0  0  0  0  0  0  0  0  0  0  0
   21.3640   42.4100   34.2050   C 0  0  0  0  0  0  0  0  0  0  0  0
   20.3590   41.7390   33.6180   O 0  0  0  0  0  0  0  0  0  0  0  0
  1  2  2  0  0  0  0
  1  7  1  0  0  0  0
  2  3  1  0  0  0  0
  3  4  1  0  0  0  0
  3  5  2  0  0  0  0
  5  6  1  0  0  0  0
  6  7  2  0  0  0  0
  7  8  1  0  0  0  0
  8  9  1  0  0  0  0
  8 10  2  0  0  0  0
  9 14  1  0  0  0  0
 10 11  1  0  0  0  0
 11 12  2  0  0  0  0
 11 13  1  0  0  0  0
 13 14  2  0  0  0  0
 13 19  1  0  0  0  0
 14 15  1  0  0  0  0
 15 16  2  0  0  0  0
 16 17  1  0  0  0  0
 16 18  1  0  0  0  0
 18 19  2  0  0  0  0
 19 20  1  0  0  0  0
M  END
>  <InstanceId>
4DER_AGI_A_201

>  <ChemCompId>
AGI

>  <PdbId>
4DER

>  <ChainId>
A

>  <ResidueNumber>
201

>  <InsertionCode>


>  <Model>
1

>  <AltIds>


>  <MissingHeavyAtoms>
0

>  <ObservedFormula>
C15 O5

>  <Name>
5,7-dihydroxy-2-(4-hydroxyphenyl)-4H-chromen-4-one

>  <SystematicName>
5,7-dihydroxy-2-(4-hydroxyphenyl)chromen-4-one

>  <Synonyms>
Apigenin

>  <Type>
NON-POLYMER

>  <Formula>
C15 H10 O5

>  <MolecularWeight>
270.237

>  <ModifiedDate>
2020-06-17

>  <Parent>


>  <OneLetterCode>


>  <SubcomponentList>


>  <AmbiguousFlag>
N

>  <InChI>
InChI=1S/C15H10O5/c16-9-3-1-8(2-4-9)13-7-12(19)15-11(18)5-10(17)6-14(15)20-13/h1-7,16-18H

>  <InChIKey>
KZNIFHPLKGYRTM-UHFFFAOYSA-N

>  <SMILES>
c1cc(ccc1C2=CC(=O)c3c(cc(cc3O2)O)O)O

$$$$
