5FLT_VJJ_A_1264
  RCSB PDB08022001243D
Coordinates from PDB:5FLT:A:1264 Model:1 without hydrogens
 16 17  0  0  0  0            999 V2000
   -3.5490    2.0350   15.9330   O 0  0  0  0  0  0  0  0  0  0  0  0
   -5.7800    2.2340   15.6930   O 0  0  0  0  0  0  0  0  0  0  0  0
   -0.5090    9.9360   13.9620   C 0  0  0  0  0  0  0  0  0  0  0  0
   -1.4960    9.5290   14.8020   C 0  0  0  0  0  0  0  0  0  0  0  0
    0.0220    9.0720   13.0260   C 0  0  0  0  0  0  0  0  0  0  0  0
   -5.4590    5.7880   13.6540   C 0  0  0  0  0  0  0  0  0  0  0  0
   -1.9930    8.2530   14.7300   C 0  0  0  0  0  0  0  0  0  0  0  0
   -0.4780    7.7900   12.9320   C 0  0  0  0  0  0  0  0  0  0  0  0
   -4.2230    6.3270   13.4230   C 0  0  0  0  0  0  0  0  0  0  0  0
   -5.5900    4.5680   14.2960   C 0  0  0  0  0  0  0  0  0  0  0  0
   -3.2480    4.4410   14.5600   C 0  0  0  0  0  0  0  0  0  0  0  0
   -1.8850    6.0940   13.6830   O 0  0  0  0  0  0  0  0  0  0  0  0
   -4.6000    2.5870   15.4630   C 0  0  0  0  0  0  0  0  0  0  0  0
   -1.4880    7.4130   13.7880   C 0  0  0  0  0  0  0  0  0  0  0  0
   -3.1450    5.6320   13.8900   C 0  0  0  0  0  0  0  0  0  0  0  0
   -4.4850    3.9000   14.7720   C 0  0  0  0  0  0  0  0  0  0  0  0
  1 13  2  0  0  0  0
  2 13  1  0  0  0  0
  3  4  2  0  0  0  0
  3  5  1  0  0  0  0
  4  7  1  0  0  0  0
  5  8  2  0  0  0  0
  6  9  2  0  0  0  0
  6 10  1  0  0  0  0
  7 14  2  0  0  0  0
  8 14  1  0  0  0  0
  9 15  1  0  0  0  0
 10 16  2  0  0  0  0
 11 15  2  0  0  0  0
 11 16  1  0  0  0  0
 12 14  1  0  0  0  0
 12 15  1  0  0  0  0
 13 16  1  0  0  0  0
M  END
>  <InstanceId>
5FLT_VJJ_A_1264

>  <ChemCompId>
VJJ

>  <PdbId>
5FLT

>  <ChainId>
A

>  <ResidueNumber>
1264

>  <InsertionCode>


>  <Model>
1

>  <AltIds>


>  <MissingHeavyAtoms>
0

>  <ObservedFormula>
C13 O3

>  <Name>
3-phenoxybenzoic acid

>  <SystematicName>
3-phenoxybenzoic acid

>  <Synonyms>


>  <Type>
NON-POLYMER

>  <Formula>
C13 H10 O3

>  <MolecularWeight>
214.217

>  <ModifiedDate>
2012-03-30

>  <Parent>


>  <OneLetterCode>


>  <SubcomponentList>


>  <AmbiguousFlag>
N

>  <InChI>
InChI=1S/C13H10O3/c14-13(15)10-5-4-8-12(9-10)16-11-6-2-1-3-7-11/h1-9H,(H,14,15)

>  <InChIKey>
NXTDJHZGHOFSQG-UHFFFAOYSA-N

>  <SMILES>
c1ccc(cc1)Oc2cccc(c2)C(=O)O

$$$$
