4D3H_2BA_A_110
  RCSB PDB08012021263D
Coordinates from PDB:4D3H:A:110 Model:1 without hydrogens
 44 50  0  0  0  0            999 V2000
   -8.6740   -7.6270   -9.5220   P 0  0  0  0  0  0  0  0  0  0  0  0
   -7.8660   -8.4380   -8.5460   O 0  0  0  0  0  0  0  0  0  0  0  0
   -8.5830   -6.1760   -9.7150   O 0  0  0  0  0  0  0  0  0  0  0  0
   -8.1640   -8.2510  -10.9730   O 0  0  0  0  0  0  0  0  0  0  0  0
   -8.4350   -7.5750  -12.2030   C 0  0  0  0  0  0  0  0  0  0  0  0
   -7.8470   -8.4650  -13.3070   C 0  0  0  0  0  0  0  0  0  0  0  0
   -6.4110   -8.4720  -13.1270   O 0  0  0  0  0  0  0  0  0  0  0  0
   -8.2110   -9.9330  -13.2410   C 0  0  0  0  0  0  0  0  0  0  0  0
   -9.4360  -10.3220  -13.8800   O 0  0  0  0  0  0  0  0  0  0  0  0
   -6.9920  -10.6000  -13.8320   C 0  0  0  0  0  0  0  0  0  0  0  0
   -7.0400  -10.6410  -15.2680   O 0  0  0  0  0  0  0  0  0  0  0  0
   -5.8410   -9.7280  -13.4090   C 0  0  0  0  0  0  0  0  0  0  0  0
   -5.0680  -10.2110  -12.2020   N 0  0  0  0  0  0  0  0  0  0  0  0
   -5.2540   -9.8470  -10.8760   C 0  0  0  0  0  0  0  0  0  0  0  0
   -4.3550  -10.4400  -10.0480   N 0  0  0  0  0  0  0  0  0  0  0  0
   -3.6010  -11.2030  -10.8770   C 0  0  0  0  0  0  0  0  0  0  0  0
   -2.5000  -12.1310  -10.6650   C 0  0  0  0  0  0  0  0  0  0  0  0
   -2.0310  -12.3240   -9.4380   N 0  0  0  0  0  0  0  0  0  0  0  0
   -1.9730  -12.7500  -11.7450   N 0  0  0  0  0  0  0  0  0  0  0  0
   -2.4590  -12.5860  -12.9790   C 0  0  0  0  0  0  0  0  0  0  0  0
   -3.4740  -11.7790  -13.2530   N 0  0  0  0  0  0  0  0  0  0  0  0
   -4.0810  -11.0920  -12.2430   C 0  0  0  0  0  0  0  0  0  0  0  0
  -10.3120  -11.5040  -13.2780   P 0  0  0  0  0  0  0  0  0  0  0  0
   -9.5060  -12.7830  -13.0940   O 0  0  0  0  0  0  0  0  0  0  0  0
  -11.4380  -11.6380  -14.2240   O 0  0  0  0  0  0  0  0  0  0  0  0
  -10.6840  -10.9230  -11.8010   O 0  0  0  0  0  0  0  0  0  0  0  0
  -11.5540   -9.8000  -11.6600   C 0  0  0  0  0  0  0  0  0  0  0  0
  -11.8580   -9.5300  -10.2050   C 0  0  0  0  0  0  0  0  0  0  0  0
  -12.5020  -10.7040   -9.6760   O 0  0  0  0  0  0  0  0  0  0  0  0
  -10.6220   -9.3750   -9.3460   C 0  0  0  0  0  0  0  0  0  0  0  0
  -10.2070   -8.0590   -9.4850   O 0  0  0  0  0  0  0  0  0  0  0  0
  -11.1410   -9.7290   -7.9690   C 0  0  0  0  0  0  0  0  0  0  0  0
  -11.8060   -8.5990   -7.3300   O 0  0  0  0  0  0  0  0  0  0  0  0
  -12.1430  -10.8260   -8.2880   C 0  0  0  0  0  0  0  0  0  0  0  0
  -11.6240  -12.2080   -8.1860   N 0  0  0  0  0  0  0  0  0  0  0  0
  -10.7810  -12.8180   -9.0560   C 0  0  0  0  0  0  0  0  0  0  0  0
  -10.5030  -14.0960   -8.6860   N 0  0  0  0  0  0  0  0  0  0  0  0
  -11.1830  -14.3080   -7.5750   C 0  0  0  0  0  0  0  0  0  0  0  0
  -11.3520  -15.4460   -6.6350   C 0  0  0  0  0  0  0  0  0  0  0  0
  -10.7300  -16.6180   -6.8420   N 0  0  0  0  0  0  0  0  0  0  0  0
  -12.1310  -15.2420   -5.5580   N 0  0  0  0  0  0  0  0  0  0  0  0
  -12.7850  -14.0850   -5.3250   C 0  0  0  0  0  0  0  0  0  0  0  0
  -12.6950  -13.0260   -6.1450   N 0  0  0  0  0  0  0  0  0  0  0  0
  -11.9220  -13.0730   -7.2560   C 0  0  0  0  0  0  0  0  0  0  0  0
  1  2  2  0  0  0  0
  1  3  1  0  0  0  0
  1  4  1  0  0  0  0
  1 31  1  0  0  0  0
  4  5  1  0  0  0  0
  5  6  1  0  0  0  0
  6  7  1  0  0  0  0
  6  8  1  0  0  0  0
  7 12  1  0  0  0  0
  8  9  1  0  0  0  0
  8 10  1  0  0  0  0
  9 23  1  0  0  0  0
 10 11  1  0  0  0  0
 10 12  1  0  0  0  0
 12 13  1  0  0  0  0
 13 14  1  0  0  0  0
 13 22  1  0  0  0  0
 14 15  2  0  0  0  0
 15 16  1  0  0  0  0
 16 17  2  0  0  0  0
 16 22  1  0  0  0  0
 17 18  1  0  0  0  0
 17 19  1  0  0  0  0
 19 20  2  0  0  0  0
 20 21  1  0  0  0  0
 21 22  2  0  0  0  0
 23 24  2  0  0  0  0
 23 25  1  0  0  0  0
 23 26  1  0  0  0  0
 26 27  1  0  0  0  0
 27 28  1  0  0  0  0
 28 29  1  0  0  0  0
 28 30  1  0  0  0  0
 29 34  1  0  0  0  0
 30 31  1  0  0  0  0
 30 32  1  0  0  0  0
 32 33  1  0  0  0  0
 32 34  1  0  0  0  0
 34 35  1  0  0  0  0
 35 36  1  0  0  0  0
 35 44  1  0  0  0  0
 36 37  2  0  0  0  0
 37 38  1  0  0  0  0
 38 39  2  0  0  0  0
 38 44  1  0  0  0  0
 39 40  1  0  0  0  0
 39 41  1  0  0  0  0
 41 42  2  0  0  0  0
 42 43  1  0  0  0  0
 43 44  2  0  0  0  0
M  END
>  <InstanceId>
4D3H_2BA_A_110

>  <ChemCompId>
2BA

>  <PdbId>
4D3H

>  <ChainId>
A

>  <ResidueNumber>
110

>  <InsertionCode>


>  <Model>
1

>  <AltIds>


>  <MissingHeavyAtoms>
0

>  <ObservedFormula>
C20 N10 O12 P2

>  <Name>
(2R,3R,3aS,5R,7aR,9R,10R,10aS,12R,14aR)-2,9-bis(6-amino-9H-purin-9-yl)octahydro-2H,7H-difuro[3,2-d:3',2'-j][1,3,7,9,2,8 ]tetraoxadiphosphacyclododecine-3,5,10,12-tetrol 5,12-dioxide

>  <SystematicName>


>  <Synonyms>
bis-(3',5')-cyclic-dimeric-Adenosine-monophosphate

>  <Type>
NON-POLYMER

>  <Formula>
C20 H24 N10 O12 P2

>  <MolecularWeight>
658.412

>  <ModifiedDate>
2020-06-17

>  <Parent>


>  <OneLetterCode>


>  <SubcomponentList>


>  <AmbiguousFlag>
N

>  <InChI>
InChI=1S/C20H24N10O12P2/c21-15-9-17(25-3-23-15)29(5-27-9)19-11(31)13-7(39-19)1-37-43(33,34)42-14-8(2-38-44(35,36)41-13)40-20(12(14)32)30-6-28-10-16(22)24-4-26-18(10)30/h3-8,11-14,19-20,31-32H,1-2H2,(H,33,34)(H,35,36)(H2,21,23,25)(H2,22,24,26)/t7-,8-,11-,12-,13-,14-,19-,20-/m1/s1

>  <InChIKey>
PDXMFTWFFKBFIN-XPWFQUROSA-N

>  <SMILES>
c1nc(c2c(n1)n(cn2)[C@H]3[C@@H]([C@H]4[C@H](O3)CO[P@](=O)(O[C@@H]5[C@@H](CO[P@](=O)(O4)O)O[C@H]([C@@H]5O)n6cnc7c6ncnc7N)O)O)N

$$$$
