4PSB_GA3_A_201
  RCSB PDB08012022543D
Coordinates from PDB:4PSB:A:201 Model:1 without hydrogens
 25 29  0  0  0  0            999 V2000
    8.3730    0.3100   20.6800   O 0  0  0  0  0  0  0  0  0  0  0  0
    9.1680    0.5860   19.7500   C 0  0  0  0  0  0  0  0  0  0  0  0
    8.8090    0.8830   18.5920   O 0  0  0  0  0  0  0  0  0  0  0  0
   10.6670    0.6050   20.0080   C 0  0  0  0  0  0  0  0  0  0  0  0
   11.5730    0.2580   18.8180   C 0  0  0  0  0  0  0  0  0  0  0  0
   11.0670    2.0580   20.3640   C 0  0  0  0  0  0  0  0  0  0  0  0
   10.1960    3.2130   19.8430   C 0  0  0  0  0  0  0  0  0  0  0  0
   10.5780    4.3280   20.7710   C 0  0  0  0  0  0  0  0  0  0  0  0
   10.4490    5.6250   20.5620   C 0  0  0  0  0  0  0  0  0  0  0  0
   11.3450    3.7790   21.9620   C 0  0  0  0  0  0  0  0  0  0  0  0
   11.0300    2.2750   21.8780   C 0  0  0  0  0  0  0  0  0  0  0  0
   11.0740    4.4120   23.2290   O 0  0  0  0  0  0  0  0  0  0  0  0
   12.8550    3.9470   21.7240   C 0  0  0  0  0  0  0  0  0  0  0  0
   13.4190    2.6910   21.0560   C 0  0  0  0  0  0  0  0  0  0  0  0
   12.5240    2.2820   19.8850   C 0  0  0  0  0  0  0  0  0  0  0  0
   12.8810    0.9480   19.2520   C 0  0  0  0  0  0  0  0  0  0  0  0
   13.3750   -0.0620   20.2330   O 0  0  0  0  0  0  0  0  0  0  0  0
   13.9170    0.9280   18.1690   C 0  0  0  0  0  0  0  0  0  0  0  0
   13.9880   -0.1540   17.3950   C 0  0  0  0  0  0  0  0  0  0  0  0
   13.0150   -1.3060   17.4570   C 0  0  0  0  0  0  0  0  0  0  0  0
   12.3110   -1.2980   16.2220   O 0  0  0  0  0  0  0  0  0  0  0  0
   12.0640   -1.2080   18.6800   C 0  0  0  0  0  0  0  0  0  0  0  0
   10.9890   -2.2950   18.6980   C 0  0  0  0  0  0  0  0  0  0  0  0
   12.9440   -1.3110   19.9060   C 0  0  0  0  0  0  0  0  0  0  0  0
   13.2400   -2.2680   20.5490   O 0  0  0  0  0  0  0  0  0  0  0  0
  1  2  1  0  0  0  0
  2  3  2  0  0  0  0
  2  4  1  0  0  0  0
  4  5  1  0  0  0  0
  4  6  1  0  0  0  0
  5 16  1  0  0  0  0
  5 22  1  0  0  0  0
  6  7  1  0  0  0  0
  6 11  1  0  0  0  0
  6 15  1  0  0  0  0
  7  8  1  0  0  0  0
  8  9  2  0  0  0  0
  8 10  1  0  0  0  0
 10 11  1  0  0  0  0
 10 12  1  0  0  0  0
 10 13  1  0  0  0  0
 13 14  1  0  0  0  0
 14 15  1  0  0  0  0
 15 16  1  0  0  0  0
 16 17  1  0  0  0  0
 16 18  1  0  0  0  0
 17 24  1  0  0  0  0
 18 19  2  0  0  0  0
 19 20  1  0  0  0  0
 20 21  1  0  0  0  0
 20 22  1  0  0  0  0
 22 23  1  0  0  0  0
 22 24  1  0  0  0  0
 24 25  2  0  0  0  0
M  END
>  <InstanceId>
4PSB_GA3_A_201

>  <ChemCompId>
GA3

>  <PdbId>
4PSB

>  <ChainId>
A

>  <ResidueNumber>
201

>  <InsertionCode>


>  <Model>
1

>  <AltIds>


>  <MissingHeavyAtoms>
0

>  <ObservedFormula>
C19 O6

>  <Name>
GIBBERELLIN A3

>  <SystematicName>


>  <Synonyms>
(1S,2S,4aR,4bR,7S,9aS,10S,10aR)-2,7-dihydroxy-1-methyl-8-methylidene-13-oxo-1,2,4b,5,6,7,8,9,10,10a-decahydro-4a,1-(epo xymethano)-7,9a-methanobenzo[a]azulene-10-carboxylic acid

>  <Type>
NON-POLYMER

>  <Formula>
C19 H22 O6

>  <MolecularWeight>
346.374

>  <ModifiedDate>
2020-06-17

>  <Parent>


>  <OneLetterCode>


>  <SubcomponentList>


>  <AmbiguousFlag>
N

>  <InChI>
InChI=1S/C19H22O6/c1-9-7-17-8-18(9,24)5-3-10(17)19-6-4-11(20)16(2,15(23)25-19)13(19)12(17)14(21)22/h4,6,10-13,20,24H,1,3,5,7-8H2,2H3,(H,21,22)/t10-,11+,12-,13-,16-,17+,18+,19-/m1/s1

>  <InChIKey>
IXORZMNAPKEEDV-OBDJNFEBSA-N

>  <SMILES>
C[C@@]12[C@H](C=C[C@@]3([C@@H]1[C@@H]([C@]45[C@H]3CC[C@](C4)(C(=C)C5)O)C(=O)O)OC2=O)O

$$$$
