6CBG_EWG_B_204
  RCSB PDB08022004123D
Coordinates from PDB:6CBG:B:204 Model:1 without hydrogens
 14 15  0  0  0  0            999 V2000
  -33.9160  -12.4210    6.8620   C 0  0  0  0  0  0  0  0  0  0  0  0
  -32.6110  -12.8710    6.8620   C 0  0  0  0  0  0  0  0  0  0  0  0
  -33.8690  -11.0380    6.9420   C 0  0  0  0  0  0  0  0  0  0  0  0
  -31.8270  -11.8090    6.9740   N 0  0  0  0  0  0  0  0  0  0  0  0
  -32.5740  -10.6540    7.0170   N 0  0  0  0  0  0  0  0  0  0  0  0
  -35.1320  -13.2570    6.6990   C 0  0  0  0  0  0  0  0  0  0  0  0
  -36.4000  -12.6870    6.6880   C 0  0  0  0  0  0  0  0  0  0  0  0
  -37.5140  -13.5030    6.4820   C 0  0  0  0  0  0  0  0  0  0  0  0
  -37.3910  -14.8840    6.2930   C 0  0  0  0  0  0  0  0  0  0  0  0
  -36.1190  -15.4360    6.3060   C 0  0  0  0  0  0  0  0  0  0  0  0
  -35.0030  -14.6210    6.4890   C 0  0  0  0  0  0  0  0  0  0  0  0
  -38.8660  -12.9250    6.4980   C 0  0  0  0  0  0  0  0  0  0  0  0
  -39.8030  -13.5010    5.9280   O 0  0  0  0  0  0  0  0  0  0  0  0
  -39.0210  -11.8040    7.1930   O 0  0  0  0  0  0  0  0  0  0  0  0
 13 12  2  0  0  0  0
  9 10  2  0  0  0  0
  9  8  1  0  0  0  0
 10 11  1  0  0  0  0
  8 12  1  0  0  0  0
  8  7  2  0  0  0  0
 11  6  2  0  0  0  0
 12 14  1  0  0  0  0
  7  6  1  0  0  0  0
  6  1  1  0  0  0  0
  1  2  2  0  0  0  0
  1  3  1  0  0  0  0
  2  4  1  0  0  0  0
  3  5  2  0  0  0  0
  4  5  1  0  0  0  0
M  END
>  <InstanceId>
6CBG_EWG_B_204

>  <ChemCompId>
EWG

>  <PdbId>
6CBG

>  <ChainId>
B

>  <ResidueNumber>
204

>  <InsertionCode>


>  <Model>
1

>  <AltIds>


>  <MissingHeavyAtoms>
0

>  <ObservedFormula>
C10 N2 O2

>  <Name>
3-(1H-pyrazol-4-yl)benzoic acid

>  <SystematicName>
3-(1~{H}-pyrazol-4-yl)benzoic acid

>  <Synonyms>


>  <Type>
NON-POLYMER

>  <Formula>
C10 H8 N2 O2

>  <MolecularWeight>
188.183

>  <ModifiedDate>
2018-03-29

>  <Parent>


>  <OneLetterCode>


>  <SubcomponentList>


>  <AmbiguousFlag>
N

>  <InChI>
InChI=1S/C10H8N2O2/c13-10(14)8-3-1-2-7(4-8)9-5-11-12-6-9/h1-6H,(H,11,12)(H,13,14)

>  <InChIKey>
BXSUQWZHUHROLP-UHFFFAOYSA-N

>  <SMILES>
c1cc(cc(c1)C(=O)O)c2c[nH]nc2

$$$$
