2AVQ_2NC_B_300
  RCSB PDB08012016383D
Coordinates from PDB:2AVQ:B:300 Model:1 without hydrogens
 54 53  0  0  0  0            999 V2000
   23.5580   24.5790   19.7610   C 0  0  0  0  0  0  0  0  0  0  0  0
   23.2670   25.0870   20.8620   O 0  0  0  0  0  0  0  0  0  0  0  0
   24.1610   23.2070   19.6680   C 0  0  0  0  0  0  0  0  0  0  0  0
   23.3920   25.2520   18.6220   N 0  0  0  0  0  0  0  0  0  0  0  0
   22.8170   26.5620   18.6360   C 0  0  0  0  0  0  0  0  0  0  0  0
   21.4400   26.7120   17.9630   C 0  0  0  0  0  0  0  0  0  0  0  0
   20.8100   27.7580   18.0500   O 0  0  0  0  0  0  0  0  0  0  0  0
   23.7610   27.5430   17.9290   C 0  0  0  0  0  0  0  0  0  0  0  0
   23.9560   27.0880   16.5660   O 0  0  0  0  0  0  0  0  0  0  0  0
   25.1160   27.6310   18.6560   C 0  0  0  0  0  0  0  0  0  0  0  0
   20.9640   25.6690   17.3200   N 0  0  0  0  0  0  0  0  0  0  0  0
   19.6920   25.6970   16.6240   C 0  0  0  0  0  0  0  0  0  0  0  0
   18.8220   24.6430   17.2440   C 0  0  0  0  0  0  0  0  0  0  0  0
   18.7750   23.4840   16.7760   O 0  0  0  0  0  0  0  0  0  0  0  0
   19.8410   25.5230   15.0930   C 0  0  0  0  0  0  0  0  0  0  0  0
   20.9050   26.4130   14.4720   C 0  0  0  0  0  0  0  0  0  0  0  0
   18.5060   25.6550   14.3690   C 0  0  0  0  0  0  0  0  0  0  0  0
   20.6910   27.9020   14.6000   C 0  0  0  0  0  0  0  0  0  0  0  0
   18.1060   24.9680   18.2900   N 0  0  0  0  0  0  0  0  0  0  0  0
   17.3510   23.9520   19.0390   C 0  0  0  0  0  0  0  0  0  0  0  0
   15.8460   23.9720   18.7540   C 0  0  0  0  0  0  0  0  0  0  0  0
   17.6470   24.1130   20.5130   C 0  0  0  0  0  0  0  0  0  0  0  0
   19.0980   24.1520   20.9060   C 0  0  0  0  0  0  0  0  0  0  0  0
   19.8940   22.9600   20.5290   C 0  0  0  0  0  0  0  0  0  0  0  0
   19.3270   21.6460   21.0710   C 0  0  0  0  0  0  0  0  0  0  0  0
   15.4870   23.8340   17.4440   N 0  0  0  0  0  0  0  0  0  0  0  0
   14.2850   23.1190   16.9940   C 0  0  0  0  0  0  0  0  0  0  0  0
   14.2990   21.6830   17.4460   C 0  0  0  0  0  0  0  0  0  0  0  0
   15.3140   20.9660   17.3610   O 0  0  0  0  0  0  0  0  0  0  0  0
   14.0900   23.1570   15.4890   C 0  0  0  0  0  0  0  0  0  0  0  0
   12.9590   22.4730   14.7820   C 0  0  0  0  0  0  0  0  0  0  0  0
   13.2960   21.0570   14.3400   C 0  0  0  0  0  0  0  0  0  0  0  0
   14.3160   21.0710   13.1950   C 0  0  0  0  0  0  0  0  0  0  0  0
   13.1710   21.1970   17.9050   N 0  0  0  0  0  0  0  0  0  0  0  0
   13.0710   19.7800   18.3030   C 0  0  0  0  0  0  0  0  0  0  0  0
   11.6490   19.3230   17.9850   C 0  0  0  0  0  0  0  0  0  0  0  0
   10.6390   19.9610   18.3190   O 0  0  0  0  0  0  0  0  0  0  0  0
   13.4760   19.5890   19.7410   C 0  0  0  0  0  0  0  0  0  0  0  0
   13.2950   18.2280   20.3160   C 0  0  0  0  0  0  0  0  0  0  0  0
   11.8920   17.9480   20.8690   C 0  0  0  0  0  0  0  0  0  0  0  0
   11.2640   18.8560   21.3440   O 0  0  0  0  0  0  0  0  0  0  0  0
   11.4170   16.7280   20.7700   N 0  0  0  0  0  0  0  0  0  0  0  0
   11.5760   18.1240   17.4730   N 0  0  0  0  0  0  0  0  0  0  0  0
   10.3000   17.5320   17.1300   C 0  0  0  0  0  0  0  0  0  0  0  0
   10.2270   16.1610   17.7550   C 0  0  0  0  0  0  0  0  0  0  0  0
   11.1820   15.4110   17.7590   O 0  0  0  0  0  0  0  0  0  0  0  0
   10.1990   17.3930   15.6200   C 0  0  0  0  0  0  0  0  0  0  0  0
    9.9380   18.7310   14.9330   C 0  0  0  0  0  0  0  0  0  0  0  0
   10.4720   18.7770   13.5090   C 0  0  0  0  0  0  0  0  0  0  0  0
    9.6990   17.9290   12.6000   N 0  0  0  0  0  0  0  0  0  0  0  0
    8.5130   18.2320   12.0840   C 0  0  0  0  0  0  0  0  0  0  0  0
    7.9660   19.3970   12.4150   N 0  0  0  0  0  0  0  0  0  0  0  0
    7.8740   17.4050   11.2580   N 0  3  0  0  0  0  0  0  0  0  0  0
    9.4690   15.8580   18.1430   N 0  0  0  0  0  0  0  0  0  0  0  0
  1  2  2  0  0  0  0
  1  3  1  0  0  0  0
  4  5  1  0  0  0  0
  5  6  1  0  0  0  0
  5  8  1  0  0  0  0
  6  7  2  0  0  0  0
  8  9  1  0  0  0  0
  8 10  1  0  0  0  0
 11 12  1  0  0  0  0
 12 13  1  0  0  0  0
 12 15  1  0  0  0  0
 13 14  2  0  0  0  0
 15 16  1  0  0  0  0
 15 17  1  0  0  0  0
 16 18  1  0  0  0  0
 19 20  1  0  0  0  0
 20 21  1  0  0  0  0
 20 22  1  0  0  0  0
 22 23  1  0  0  0  0
 23 24  1  0  0  0  0
 24 25  1  0  0  0  0
 26 27  1  0  0  0  0
 27 28  1  0  0  0  0
 27 30  1  0  0  0  0
 28 29  2  0  0  0  0
 30 31  1  0  0  0  0
 31 32  1  0  0  0  0
 32 33  1  0  0  0  0
 34 35  1  0  0  0  0
 35 36  1  0  0  0  0
 35 38  1  0  0  0  0
 36 37  2  0  0  0  0
 38 39  1  0  0  0  0
 39 40  1  0  0  0  0
 40 41  2  0  0  0  0
 40 42  1  0  0  0  0
 43 44  1  0  0  0  0
 44 45  1  0  0  0  0
 44 47  1  0  0  0  0
 45 46  2  0  0  0  0
 47 48  1  0  0  0  0
 48 49  1  0  0  0  0
 49 50  1  0  0  0  0
 50 51  1  0  0  0  0
 51 52  1  0  0  0  0
 51 53  2  0  0  0  0
  1  4  1  0  0  0  0
  6 11  1  0  0  0  0
 13 19  1  0  0  0  0
 21 26  1  0  0  0  0
 28 34  1  0  0  0  0
 36 43  1  0  0  0  0
 45 54  1  0  0  0  0
M  CHG  1  53   1
M  END
>  <InstanceId>
2AVQ_2NC_B_300

>  <ChemCompId>
2NC

>  <PdbId>
2AVQ

>  <ChainId>
B

>  <ResidueNumber>
300

>  <InsertionCode>


>  <Model>
1

>  <AltIds>


>  <MissingHeavyAtoms>
0

>  <ObservedFormula>
C35 N11 O8

>  <Name>
N-{(2S)-2-[(N-acetyl-L-threonyl-L-isoleucyl)amino]hexyl}-L-norleucyl-L-glutaminyl-N~5~-[amino(iminio)methyl]-L-ornithinamide

>  <SystematicName>
[[[(4S)-4-[[(2S)-2-[[(2S)-2-[[(2S)-2-[[(2S,3S)-2-[[(2S,3R)-2-acetamido-3-hydroxy-butanoyl]amino]-3-methyl-pentanoyl]amino]hexyl]amino]hexanoyl]amino]-5-azanyl-5-oxo-pentanoyl]amino]-5-azanyl-5-oxo-pentyl]amino]-azanyl-methylidene]azanium

>  <Synonyms>
p2/NC

>  <Type>
peptide-like

>  <Formula>
C35 H68 N11 O8

>  <MolecularWeight>
770.983

>  <ModifiedDate>
2012-01-05

>  <Parent>


>  <OneLetterCode>


>  <SubcomponentList>
ACE THR ILE 2A0 GLN ARG NH2

>  <AmbiguousFlag>
N

>  <InChI>
InChI=1S/C35H67N11O8/c1-7-10-13-23(43-33(53)28(20(4)9-3)46-34(54)29(21(5)47)42-22(6)48)19-41-25(14-11-8-2)31(51)45-26(16-17-27(36)49)32(52)44-24(30(37)50)15-12-18-40-35(38)39/h20-21,23-26,28-29,41,47H,7-19H2,1-6H3,(H2,36,49)(H2,37,50)(H,42,48)(H,43,53)(H,44,52)(H,45,51)(H,46,54)(H4,38,39,40)/p+1/t20-,21+,23-,24-,25-,26-,28-,29-/m0/s1

>  <InChIKey>
MQPXOVRKKPPKFZ-QYKDHROSSA-O

>  <SMILES>
CCCC[C@@H](CN[C@@H](CCCC)C(=O)N[C@@H](CCC(=O)N)C(=O)N[C@@H](CCCNC(=[NH2+])N)C(=O)N)NC(=O)[C@H]([C@@H](C)CC)NC(=O)[C@H]([C@@H](C)O)NC(=O)C

$$$$
