2V58_LZJ_A_1448
  RCSB PDB08012017593D
Coordinates from PDB:2V58:A:1448 Model:1 without hydrogens
 20 22  0  0  0  0            999 V2000
    7.1360  -21.7170   26.4580  Br 0  0  0  0  0  0  0  0  0  0  0  0
    6.1620  -20.3930   25.5290   C 0  0  0  0  0  0  0  0  0  0  0  0
    6.6160  -19.0780   25.6060   C 0  0  0  0  0  0  0  0  0  0  0  0
    5.9360  -18.0620   24.9470   C 0  0  0  0  0  0  0  0  0  0  0  0
    4.7990  -18.3670   24.2080   C 0  0  0  0  0  0  0  0  0  0  0  0
    4.3460  -19.6830   24.1290   C 0  0  0  0  0  0  0  0  0  0  0  0
    2.7930  -20.0270   23.1150  Br 0  0  0  0  0  0  0  0  0  0  0  0
    5.0180  -20.7080   24.7930   C 0  0  0  0  0  0  0  0  0  0  0  0
    4.5310  -22.1190   24.6870   C 0  0  0  0  0  0  0  0  0  0  0  0
    3.3650  -22.5480   25.3290   C 0  0  0  0  0  0  0  0  0  0  0  0
    2.9590  -23.8780   25.1790   C 0  0  0  0  0  0  0  0  0  0  0  0
    1.8060  -24.3650   25.7950   C 0  0  0  0  0  0  0  0  0  0  0  0
    1.4530  -25.6530   25.6290   N 0  0  0  0  0  0  0  0  0  0  0  0
    5.2520  -23.0320   23.9090   C 0  0  0  0  0  0  0  0  0  0  0  0
    6.3830  -22.6610   23.2620   N 0  0  0  0  0  0  0  0  0  0  0  0
    4.8380  -24.3160   23.7820   N 0  0  0  0  0  0  0  0  0  0  0  0
    3.7150  -24.7510   24.3980   C 0  0  0  0  0  0  0  0  0  0  0  0
    3.3240  -26.0390   24.2550   N 0  0  0  0  0  0  0  0  0  0  0  0
    2.2000  -26.4890   24.8620   C 0  0  0  0  0  0  0  0  0  0  0  0
    1.8360  -27.7850   24.7050   N 0  0  0  0  0  0  0  0  0  0  0  0
  1  2  1  0  0  0  0
  2  3  1  0  0  0  0
  2  8  2  0  0  0  0
  3  4  2  0  0  0  0
  4  5  1  0  0  0  0
  5  6  2  0  0  0  0
  6  7  1  0  0  0  0
  6  8  1  0  0  0  0
  8  9  1  0  0  0  0
  9 10  1  0  0  0  0
  9 14  2  0  0  0  0
 10 11  2  0  0  0  0
 11 12  1  0  0  0  0
 11 17  1  0  0  0  0
 12 13  2  0  0  0  0
 13 19  1  0  0  0  0
 14 15  1  0  0  0  0
 14 16  1  0  0  0  0
 16 17  2  0  0  0  0
 17 18  1  0  0  0  0
 18 19  2  0  0  0  0
 19 20  1  0  0  0  0
M  END
>  <InstanceId>
2V58_LZJ_A_1448

>  <ChemCompId>
LZJ

>  <PdbId>
2V58

>  <ChainId>
A

>  <ResidueNumber>
1448

>  <InsertionCode>


>  <Model>
1

>  <AltIds>


>  <MissingHeavyAtoms>
0

>  <ObservedFormula>
C13 N5 Br2

>  <Name>
6-(2,6-dibromophenyl)pyrido[2,3-d]pyrimidine-2,7-diamine

>  <SystematicName>
6-(2,6-dibromophenyl)pyrido[6,5-d]pyrimidine-2,7-diamine

>  <Synonyms>


>  <Type>
non-polymer

>  <Formula>
C13 H9 Br2 N5

>  <MolecularWeight>
395.052

>  <ModifiedDate>
2011-06-04

>  <Parent>


>  <OneLetterCode>


>  <SubcomponentList>


>  <AmbiguousFlag>


>  <InChI>
InChI=1S/C13H9Br2N5/c14-8-2-1-3-9(15)10(8)7-4-6-5-18-13(17)20-12(6)19-11(7)16/h1-5H,(H4,16,17,18,19,20)

>  <InChIKey>
HGIPWJYTPOHUGK-UHFFFAOYSA-N

>  <SMILES>
c1cc(c(c(c1)Br)c2cc3cnc(nc3nc2N)N)Br

$$$$
