6F28_CG8_A_302
  RCSB PDB08022004363D
Coordinates from PDB:6F28:A:302 Model:1 without hydrogens
 18 19  0  0  0  0            999 V2000
  -44.6000  -22.9970  -20.6090   O 0  0  0  0  0  0  0  0  0  0  0  0
  -48.3450  -21.4950  -16.3200   N 0  0  0  0  0  0  0  0  0  0  0  0
  -47.1110  -20.9780  -16.9410   C 0  0  0  0  0  0  0  0  0  0  0  0
  -48.7100  -22.7860  -16.9360   C 0  0  0  0  0  0  0  0  0  0  0  0
  -42.2680  -20.2170  -18.4300   C 0  0  0  0  0  0  0  0  0  0  0  0
  -43.4160  -21.1810  -18.1000   C 0  0  0  0  0  0  0  0  0  0  0  0
  -48.3110  -21.4990  -14.8630   C 0  0  0  0  0  0  0  0  0  0  0  0
  -46.4630  -24.0020  -19.7780   N 0  0  0  0  0  0  0  0  0  0  0  0
  -45.7000  -21.9200  -18.8630   N 0  0  0  0  0  0  0  0  0  0  0  0
  -44.7360  -20.8430  -18.8550   C 0  0  0  0  0  0  0  0  0  0  0  0
  -47.6640  -22.9890  -17.9880   C 0  0  0  0  0  0  0  0  0  0  0  0
  -47.5600  -24.0990  -18.9150   C 0  0  0  0  0  0  0  0  0  0  0  0
  -45.5250  -22.9690  -19.7970   C 0  0  0  0  0  0  0  0  0  0  0  0
  -46.7800  -21.9990  -17.9980   C 0  0  0  0  0  0  0  0  0  0  0  0
  -43.6120  -21.1830  -16.6410   N 0  0  0  0  0  0  0  0  0  0  0  0
  -48.3270  -25.0580  -18.9770   O 0  0  0  0  0  0  0  0  0  0  0  0
  -41.6340  -19.7000  -17.4840   O 0  0  0  0  0  0  0  0  0  0  0  0
  -42.0160  -19.9890  -19.6300   O 0  0  0  0  0  0  0  0  0  0  0  0
  1 13  2  0  0  0  0
 13  8  1  0  0  0  0
 13  9  1  0  0  0  0
  8 12  1  0  0  0  0
 18  5  2  0  0  0  0
 16 12  2  0  0  0  0
 12 11  1  0  0  0  0
  9 10  1  0  0  0  0
  9 14  1  0  0  0  0
 10  6  1  0  0  0  0
  5  6  1  0  0  0  0
  5 17  1  0  0  0  0
  6 15  1  0  0  0  0
 14 11  2  0  0  0  0
 14  3  1  0  0  0  0
 11  4  1  0  0  0  0
  3  2  1  0  0  0  0
  4  2  1  0  0  0  0
  2  7  1  0  0  0  0
M  END
>  <InstanceId>
6F28_CG8_A_302

>  <ChemCompId>
CG8

>  <PdbId>
6F28

>  <ChainId>
A

>  <ResidueNumber>
302

>  <InsertionCode>


>  <Model>
1

>  <AltIds>


>  <MissingHeavyAtoms>
0

>  <ObservedFormula>
C10 N4 O4

>  <Name>
(2~{S})-2-azanyl-3-[6-methyl-2,4-bis(oxidanylidene)-5,7-dihydropyrrolo[3,4-d]pyrimidin-1-yl]propanoic acid

>  <SystematicName>
(2~{S})-2-azanyl-3-[6-methyl-2,4-bis(oxidanylidene)-5,7-dihydropyrrolo[3,4-d]pyrimidin-1-yl]propanoic acid

>  <Synonyms>


>  <Type>
NON-POLYMER

>  <Formula>
C10 H14 N4 O4

>  <MolecularWeight>
254.243

>  <ModifiedDate>
2018-02-23

>  <Parent>


>  <OneLetterCode>


>  <SubcomponentList>


>  <AmbiguousFlag>
N

>  <InChI>
InChI=1S/C10H14N4O4/c1-13-2-5-7(4-13)14(3-6(11)9(16)17)10(18)12-8(5)15/h6H,2-4,11H2,1H3,(H,16,17)(H,12,15,18)/t6-/m0/s1

>  <InChIKey>
BJXZWHLUHLDGNK-LURJTMIESA-N

>  <SMILES>
CN1CC2=C(C1)N(C(=O)NC2=O)C[C@@H](C(=O)O)N

$$$$
