1GI4_122_A_246
  RCSB PDB08012014593D
Coordinates from PDB:1GI4:A:246 Model:1 without hydrogens
 19 21  0  0  0  0            999 V2000
   43.8450   -2.6200   26.3150   C 0  0  0  0  0  0  0  0  0  0  0  0
   44.3910   -1.3120   26.5250   C 0  0  0  0  0  0  0  0  0  0  0  0
   44.2550   -0.5740   27.7130   C 0  0  0  0  0  0  0  0  0  0  0  0
   43.5460   -1.2100   28.6920   C 0  0  0  0  0  0  0  0  0  0  0  0
   43.0360   -2.4460   28.5270   C 0  0  0  0  0  0  0  0  0  0  0  0
   43.1400   -3.1860   27.3870   C 0  0  0  0  0  0  0  0  0  0  0  0
   44.0280   -3.3280   25.1170   C 0  0  0  0  0  0  0  0  0  0  0  0
   43.8400   -4.6310   25.0870   N 0  0  0  0  0  0  0  0  0  0  0  0
   44.3860   -2.6840   24.0310   N 0  3  0  0  0  0  0  0  0  0  0  0
   43.3130   -0.7180   29.8950   N 0  0  0  0  0  0  0  0  0  0  0  0
   42.4440   -2.7370   29.6330   N 0  0  0  0  0  0  0  0  0  0  0  0
   42.6130   -1.7180   30.4190   C 0  0  0  0  0  0  0  0  0  0  0  0
   42.0620   -1.7300   31.7660   C 0  0  0  0  0  0  0  0  0  0  0  0
   41.1150   -2.7470   32.1220   C 0  0  0  0  0  0  0  0  0  0  0  0
   40.5390   -2.8090   33.3720   C 0  0  0  0  0  0  0  0  0  0  0  0
   40.8740   -1.8690   34.3340   C 0  0  0  0  0  0  0  0  0  0  0  0
   41.7850   -0.8480   34.0790   C 0  0  0  0  0  0  0  0  0  0  0  0
   42.3750   -0.7780   32.8230   C 0  0  0  0  0  0  0  0  0  0  0  0
   43.2710    0.2670   32.7590   O 0  0  0  0  0  0  0  0  0  0  0  0
  1  2  1  0  0  0  0
  1  6  2  0  0  0  0
  1  7  1  0  0  0  0
  2  3  2  0  0  0  0
  3  4  1  0  0  0  0
  4  5  2  0  0  0  0
  4 10  1  0  0  0  0
  5  6  1  0  0  0  0
  5 11  1  0  0  0  0
  7  8  1  0  0  0  0
  7  9  2  0  0  0  0
 10 12  2  0  0  0  0
 11 12  1  0  0  0  0
 12 13  1  0  0  0  0
 13 14  2  0  0  0  0
 13 18  1  0  0  0  0
 14 15  1  0  0  0  0
 15 16  2  0  0  0  0
 16 17  1  0  0  0  0
 17 18  2  0  0  0  0
 18 19  1  0  0  0  0
M  CHG  1   9   1
M  END
>  <InstanceId>
1GI4_122_A_246

>  <ChemCompId>
122

>  <PdbId>
1GI4

>  <ChainId>
A

>  <ResidueNumber>
246

>  <InsertionCode>


>  <Model>
1

>  <AltIds>


>  <MissingHeavyAtoms>
0

>  <ObservedFormula>
C14 N4 O

>  <Name>
2-(2-HYDROXY-PHENYL)-3H-BENZOIMIDAZOLE-5-CARBOXAMIDINE

>  <SystematicName>
[amino-[2-(2-hydroxyphenyl)-3H-benzimidazol-5-yl]methylidene]azanium

>  <Synonyms>


>  <Type>
NON-POLYMER

>  <Formula>
C14 H13 N4 O

>  <MolecularWeight>
253.279

>  <ModifiedDate>
2011-06-04

>  <Parent>


>  <OneLetterCode>


>  <SubcomponentList>


>  <AmbiguousFlag>
N

>  <InChI>
InChI=1S/C14H12N4O/c15-13(16)8-5-6-10-11(7-8)18-14(17-10)9-3-1-2-4-12(9)19/h1-7,19H,(H3,15,16)(H,17,18)/p+1

>  <InChIKey>
URJKRCBBKTXOHS-UHFFFAOYSA-O

>  <SMILES>
c1ccc(c(c1)c2[nH]c3cc(ccc3n2)C(=[NH2+])N)O

$$$$
