3G32_3G3_A_1
  RCSB PDB08012019043D
Coordinates from PDB:3G32:A:1 Model:1 without hydrogens
 18 20  0  0  0  0            999 V2000
   -7.7350   53.9950   13.2500   O 0  0  0  0  0  0  0  0  0  0  0  0
   -7.3260   53.0940   12.4250   C 0  0  0  0  0  0  0  0  0  0  0  0
   -7.9970   52.8120   11.2360   C 0  0  0  0  0  0  0  0  0  0  0  0
   -9.1490   53.3180   10.6420   C 0  0  0  0  0  0  0  0  0  0  0  0
   -9.5370   52.7800    9.4090   C 0  0  0  0  0  0  0  0  0  0  0  0
   -8.7920   51.7610    8.7970   C 0  0  0  0  0  0  0  0  0  0  0  0
   -7.6360   51.2570    9.4020   C 0  0  0  0  0  0  0  0  0  0  0  0
   -7.2690   51.8090   10.6250   C 0  0  0  0  0  0  0  0  0  0  0  0
   -6.2170   52.3620   12.6480   N 0  0  0  0  0  0  0  0  0  0  0  0
   -6.1580   51.5730   11.5730   C 0  0  0  0  0  0  0  0  0  0  0  0
   -5.2330   50.7050   11.3780   O 0  0  0  0  0  0  0  0  0  0  0  0
   -5.2910   52.4130   13.7780   C 0  0  0  0  0  0  0  0  0  0  0  0
   -4.5370   53.7330   13.7410   C 0  0  0  0  0  0  0  0  0  0  0  0
   -3.2710   53.5700   12.9400   C 0  0  0  0  0  0  0  0  0  0  0  0
   -2.0790   53.2470   13.4660   N 0  0  0  0  0  0  0  0  0  0  0  0
   -1.1370   53.1710   12.4390   N 0  0  0  0  0  0  0  0  0  0  0  0
   -1.7930   53.4770   11.2490   N 0  0  0  0  0  0  0  0  0  0  0  0
   -3.1300   53.7070   11.6000   N 0  0  0  0  0  0  0  0  0  0  0  0
  1  2  2  0  0  0  0
  2  3  1  0  0  0  0
  2  9  1  0  0  0  0
  3  4  2  0  0  0  0
  3  8  1  0  0  0  0
  4  5  1  0  0  0  0
  5  6  2  0  0  0  0
  6  7  1  0  0  0  0
  7  8  2  0  0  0  0
  8 10  1  0  0  0  0
  9 10  1  0  0  0  0
  9 12  1  0  0  0  0
 10 11  2  0  0  0  0
 12 13  1  0  0  0  0
 13 14  1  0  0  0  0
 14 15  2  0  0  0  0
 14 18  1  0  0  0  0
 15 16  1  0  0  0  0
 16 17  2  0  0  0  0
 17 18  1  0  0  0  0
M  END
>  <InstanceId>
3G32_3G3_A_1

>  <ChemCompId>
3G3

>  <PdbId>
3G32

>  <ChainId>
A

>  <ResidueNumber>
1

>  <InsertionCode>


>  <Model>
1

>  <AltIds>


>  <MissingHeavyAtoms>
0

>  <ObservedFormula>
C11 N5 O2

>  <Name>
2-[2-(1H-tetrazol-5-yl)ethyl]-1H-isoindole-1,3(2H)-dione

>  <SystematicName>
2-[2-(1H-1,2,3,4-tetrazol-5-yl)ethyl]isoindole-1,3-dione

>  <Synonyms>


>  <Type>
NON-POLYMER

>  <Formula>
C11 H9 N5 O2

>  <MolecularWeight>
243.221

>  <ModifiedDate>
2011-06-04

>  <Parent>


>  <OneLetterCode>


>  <SubcomponentList>


>  <AmbiguousFlag>
N

>  <InChI>
InChI=1S/C11H9N5O2/c17-10-7-3-1-2-4-8(7)11(18)16(10)6-5-9-12-14-15-13-9/h1-4H,5-6H2,(H,12,13,14,15)

>  <InChIKey>
DEOJDUHRJBKATO-UHFFFAOYSA-N

>  <SMILES>
c1ccc2c(c1)C(=O)N(C2=O)CCc3[nH]nnn3

$$$$
