4AZB_OAN_A_1606
  RCSB PDB08012021103D
Coordinates from PDB:4AZB:A:1606 Model:1 without hydrogens
 25 26  0  0  0  0            999 V2000
   36.2290   15.4990  -16.9760   C 0  0  0  0  0  0  0  0  0  0  0  0
   36.0890   15.6870  -18.4950   C 0  0  0  0  0  0  0  0  0  0  0  0
   35.1340   15.2160  -19.1050   O 0  0  0  0  0  0  0  0  0  0  0  0
   37.0720   16.3670  -19.0730   N 0  0  0  0  0  0  0  0  0  0  0  0
   37.0880   16.6630  -20.5130   C 0  0  0  0  0  0  0  0  0  0  0  0
   36.1550   17.8340  -20.7770   C 0  0  0  0  0  0  0  0  0  0  0  0
   36.8930   19.0390  -20.6260   O 0  0  0  0  0  0  0  0  0  0  0  0
   35.6090   17.7210  -22.1930   C 0  0  0  0  0  0  0  0  0  0  0  0
   34.8660   18.8830  -22.5290   O 0  0  0  0  0  0  0  0  0  0  0  0
   34.6940   16.5080  -22.2470   C 0  0  0  0  0  0  0  0  0  0  0  0
   34.0150   16.3380  -23.6270   C 0  0  0  0  0  0  0  0  0  0  0  0
   35.0190   16.1560  -24.6290   O 0  0  0  0  0  0  0  0  0  0  0  0
   35.4530   15.3260  -21.9630   O 0  0  0  0  0  0  0  0  0  0  0  0
   36.6650   15.4490  -21.3560   C 0  0  0  0  0  0  0  0  0  0  0  0
   37.4820   14.4230  -21.5400   N 0  0  0  0  0  0  0  0  0  0  0  0
   36.9510   13.4310  -22.3060   O 0  0  0  0  0  0  0  0  0  0  0  0
   37.8850   12.6740  -22.9320   C 0  0  0  0  0  0  0  0  0  0  0  0
   39.0950   12.8000  -22.7140   O 0  0  0  0  0  0  0  0  0  0  0  0
   37.3980   11.7680  -23.7760   N 0  0  0  0  0  0  0  0  0  0  0  0
   36.0780   11.6710  -24.0140   C 0  0  0  0  0  0  0  0  0  0  0  0
   35.3040   10.7230  -23.3580   C 0  0  0  0  0  0  0  0  0  0  0  0
   33.9460   10.6240  -23.6230   C 0  0  0  0  0  0  0  0  0  0  0  0
   33.3400   11.4800  -24.5410   C 0  0  0  0  0  0  0  0  0  0  0  0
   34.1070   12.4290  -25.2010   C 0  0  0  0  0  0  0  0  0  0  0  0
   35.4720   12.5180  -24.9380   C 0  0  0  0  0  0  0  0  0  0  0  0
  1  2  1  0  0  0  0
  2  3  2  0  0  0  0
  2  4  1  0  0  0  0
  4  5  1  0  0  0  0
  5  6  1  0  0  0  0
  5 14  1  0  0  0  0
  6  7  1  0  0  0  0
  6  8  1  0  0  0  0
  8  9  1  0  0  0  0
  8 10  1  0  0  0  0
 10 11  1  0  0  0  0
 10 13  1  0  0  0  0
 11 12  1  0  0  0  0
 13 14  1  0  0  0  0
 14 15  2  0  0  0  0
 15 16  1  0  0  0  0
 16 17  1  0  0  0  0
 17 18  2  0  0  0  0
 17 19  1  0  0  0  0
 19 20  1  0  0  0  0
 20 21  2  0  0  0  0
 20 25  1  0  0  0  0
 21 22  1  0  0  0  0
 22 23  2  0  0  0  0
 23 24  1  0  0  0  0
 24 25  2  0  0  0  0
M  END
>  <InstanceId>
4AZB_OAN_A_1606

>  <ChemCompId>
OAN

>  <PdbId>
4AZB

>  <ChainId>
A

>  <ResidueNumber>
1606

>  <InsertionCode>


>  <Model>
1

>  <AltIds>


>  <MissingHeavyAtoms>
0

>  <ObservedFormula>
C15 N3 O7

>  <Name>
O-(2-ACETAMIDO-2-DEOXY D-GLUCOPYRANOSYLIDENE) AMINO-N-PHENYLCARBAMATE

>  <SystematicName>
[(Z)-[(3R,4R,5S,6R)-3-acetamido-6-(hydroxymethyl)-4,5-bis(oxidanyl)oxan-2-ylidene]amino] N-phenylcarbamate

>  <Synonyms>
PUGNAc

>  <Type>
NON-POLYMER

>  <Formula>
C15 H19 N3 O7

>  <MolecularWeight>
353.327

>  <ModifiedDate>
2011-08-15

>  <Parent>


>  <OneLetterCode>


>  <SubcomponentList>


>  <AmbiguousFlag>
N

>  <InChI>
InChI=1S/C15H19N3O7/c1-8(20)16-11-13(22)12(21)10(7-19)24-14(11)18-25-15(23)17-9-5-3-2-4-6-9/h2-6,10-13,19,21-22H,7H2,1H3,(H,16,20)(H,17,23)/b18-14-/t10-,11-,12-,13-/m1/s1

>  <InChIKey>
PBLNJFVQMUMOJY-JXZOILRNSA-N

>  <SMILES>
CC(=O)N[C@@H]\1[C@H]([C@@H]([C@H](O/C1=N\OC(=O)Nc2ccccc2)CO)O)O

$$$$
