6H8S_FSZ_A_601
  RCSB PDB08022004563D
Coordinates from PDB:6H8S:A:601 Model:1 without hydrogens
 20 21  0  0  0  0            999 V2000
    2.7500   12.6240    5.9890   N 0  0  0  0  0  0  0  0  0  0  0  0
    3.3620   13.9300    5.6180   C 0  0  0  0  0  0  0  0  0  0  0  0
    3.4980   14.8190    6.8410   C 0  0  0  0  0  0  0  0  0  0  0  0
    4.3130   14.1310    7.9460   C 0  0  0  0  0  0  0  0  0  0  0  0
    5.4470   15.3030   11.3910   C 0  0  0  0  0  0  0  0  0  0  0  0
    4.5050   14.9890    9.1830   C 0  0  0  0  0  0  0  0  0  0  0  0
    4.8390   16.5470   11.4920   C 0  0  0  0  0  0  0  0  0  0  0  0
    3.6920   12.7640    8.2670   C 0  0  0  0  0  0  0  0  0  0  0  0
    3.8950   16.2370    9.2960   C 0  0  0  0  0  0  0  0  0  0  0  0
    4.0530   17.0150   10.4400   C 0  0  0  0  0  0  0  0  0  0  0  0
    3.4160   18.3670   10.5170   C 0  0  0  0  0  0  0  0  0  0  0  0
    5.9470   13.6040   13.0970   C 0  0  0  0  0  0  0  0  0  0  0  0
    3.5580   11.9120    7.0180   C 0  0  0  0  0  0  0  0  0  0  0  0
    5.3000   14.5440   10.2370   C 0  0  0  0  0  0  0  0  0  0  0  0
    2.2550   18.4310    9.8640   F 0  0  0  0  0  0  0  0  0  0  0  0
    3.1510   18.7510   11.7540   F 0  0  0  0  0  0  0  0  0  0  0  0
    4.1780   19.3230   10.0100   F 0  0  0  0  0  0  0  0  0  0  0  0
    4.9010   12.8790   12.7520   N 0  0  0  0  0  0  0  0  0  0  0  0
    6.7470   13.2090   14.0640   N 0  0  0  0  0  0  0  0  0  0  0  0
    6.2260   14.7760   12.4630   N 0  0  0  0  0  0  0  0  0  0  0  0
  2  1  1  0  0  0  0
  2  3  1  0  0  0  0
  1 13  1  0  0  0  0
  3  4  1  0  0  0  0
 13  8  1  0  0  0  0
  4  8  1  0  0  0  0
  4  6  1  0  0  0  0
  6  9  2  0  0  0  0
  6 14  1  0  0  0  0
  9 10  1  0  0  0  0
 15 11  1  0  0  0  0
 17 11  1  0  0  0  0
 14  5  2  0  0  0  0
 10 11  1  0  0  0  0
 10  7  2  0  0  0  0
 11 16  1  0  0  0  0
  5  7  1  0  0  0  0
  5 20  1  0  0  0  0
 20 12  1  0  0  0  0
 18 12  2  0  0  0  0
 12 19  1  0  0  0  0
M  END
>  <InstanceId>
6H8S_FSZ_A_601

>  <ChemCompId>
FSZ

>  <PdbId>
6H8S

>  <ChainId>
A

>  <ResidueNumber>
601

>  <InsertionCode>


>  <Model>
1

>  <AltIds>


>  <MissingHeavyAtoms>
0

>  <ObservedFormula>
C13 N4 F3

>  <Name>
1-[3-piperidin-4-yl-5-(trifluoromethyl)phenyl]guanidine

>  <SystematicName>
1-[3-piperidin-4-yl-5-(trifluoromethyl)phenyl]guanidine

>  <Synonyms>


>  <Type>
NON-POLYMER

>  <Formula>
C13 H17 F3 N4

>  <MolecularWeight>
286.296

>  <ModifiedDate>
2018-09-21

>  <Parent>


>  <OneLetterCode>


>  <SubcomponentList>


>  <AmbiguousFlag>
N

>  <InChI>
InChI=1S/C13H17F3N4/c14-13(15,16)10-5-9(8-1-3-19-4-2-8)6-11(7-10)20-12(17)18/h5-8,19H,1-4H2,(H4,17,18,20)

>  <InChIKey>
SVJLJEMEWHBCNB-UHFFFAOYSA-N

>  <SMILES>
[H]/N=C(/N)\Nc1cc(cc(c1)C(F)(F)F)C2CCNCC2

$$$$
