6CSP_FBM_A_807
  RCSB PDB08022004173D
Coordinates from PDB:6CSP:A:807 Model:1 without hydrogens
 10 10  0  0  0  0            999 V2000
   29.9740   -3.1730   -7.8440   C 0  0  0  0  0  0  0  0  0  0  0  0
   27.7300   -2.8540   -6.8550   C 0  0  0  0  0  0  0  0  0  0  0  0
   28.5670   -3.5750   -7.8590   C 0  0  0  0  0  0  0  0  0  0  0  0
   28.0850   -4.4740   -8.7570   C 0  0  0  0  0  0  0  0  0  0  0  0
   29.0080   -5.1600   -9.7080   C 0  0  0  0  0  0  0  0  0  0  0  0
   30.1550   -4.2770  -10.1430   C 0  0  0  0  0  0  0  0  0  0  0  0
   30.8850   -3.7050   -8.9340   C 0  0  0  0  0  0  0  0  0  0  0  0
   26.4150   -2.8130   -7.1150   N 0  0  0  0  0  0  0  0  0  0  0  0
   28.1570   -2.2850   -5.8310   O 0  0  0  0  0  0  0  0  0  0  0  0
   25.5960   -2.1270   -6.2360   O 0  0  0  0  0  0  0  0  0  0  0  0
  6  5  1  0  0  0  0
  6  7  1  0  0  0  0
  5  4  1  0  0  0  0
  7  1  1  0  0  0  0
  4  3  2  0  0  0  0
  3  1  1  0  0  0  0
  3  2  1  0  0  0  0
  8  2  1  0  0  0  0
  8 10  1  0  0  0  0
  2  9  2  0  0  0  0
M  END
>  <InstanceId>
6CSP_FBM_A_807

>  <ChemCompId>
FBM

>  <PdbId>
6CSP

>  <ChainId>
A

>  <ResidueNumber>
807

>  <InsertionCode>


>  <Model>
1

>  <AltIds>


>  <MissingHeavyAtoms>
0

>  <ObservedFormula>
C7 N O2

>  <Name>
N-hydroxycyclohex-1-ene-1-carboxamide

>  <SystematicName>
~{N}-oxidanylcyclohexene-1-carboxamide

>  <Synonyms>
cyclohexenylhydroxamate

>  <Type>
NON-POLYMER

>  <Formula>
C7 H11 N O2

>  <MolecularWeight>
141.168

>  <ModifiedDate>
2020-06-17

>  <Parent>


>  <OneLetterCode>


>  <SubcomponentList>


>  <AmbiguousFlag>
N

>  <InChI>
InChI=1S/C7H11NO2/c9-7(8-10)6-4-2-1-3-5-6/h4,10H,1-3,5H2,(H,8,9)

>  <InChIKey>
NMUKJRPCVOESRU-UHFFFAOYSA-N

>  <SMILES>
C1CCC(=CC1)C(=O)NO

$$$$
