5XSR_8EC_A_401
  RCSB PDB08022003393D
Coordinates from PDB:5XSR:A:401 Model:1 without hydrogens
 22 25  0  0  0  0            999 V2000
   23.4250  -15.2440  -19.6280   C 0  0  0  0  0  0  0  0  0  0  0  0
   22.6440  -14.8430  -20.9090   C 0  0  0  0  0  0  0  0  0  0  0  0
   21.2790  -14.9670  -20.9310   C 0  0  0  0  0  0  0  0  0  0  0  0
   20.5910  -14.6590  -22.0950   C 0  0  0  0  0  0  0  0  0  0  0  0
   21.2830  -14.2020  -23.2620   C 0  0  0  0  0  0  0  0  0  0  0  0
   22.6860  -14.1100  -23.2340   C 0  0  0  0  0  0  0  0  0  0  0  0
   24.8170  -13.7760  -23.5640   C 0  0  0  0  0  0  0  0  0  0  0  0
   26.1410  -13.4400  -24.3000   C 0  0  0  0  0  0  0  0  0  0  0  0
   27.2730  -13.4420  -23.7600   C 0  0  0  0  0  0  0  0  0  0  0  0
   28.3640  -13.1260  -24.6780   C 0  0  0  0  0  0  0  0  0  0  0  0
   29.8250  -12.9670  -24.6290   C 0  0  0  0  0  0  0  0  0  0  0  0
   30.5360  -12.3250  -26.0050   C 0  0  0  0  0  0  0  0  0  0  0  0
   28.4470  -12.5600  -27.1680   C 0  0  0  0  0  0  0  0  0  0  0  0
   27.8380  -12.8860  -26.0090   C 0  0  0  0  0  0  0  0  0  0  0  0
   23.3400  -14.4410  -22.0390   C 0  0  0  0  0  0  0  0  0  0  0  0
   19.2200  -14.8140  -22.0100   F 0  0  0  0  0  0  0  0  0  0  0  0
   24.8410  -15.0840  -19.6320   N 0  0  0  0  0  0  0  0  0  0  0  0
   23.6520  -13.7610  -23.9830   N 0  0  0  0  0  0  0  0  0  0  0  0
   29.8370  -12.7210  -27.3240   N 0  0  0  0  0  0  0  0  0  0  0  0
   24.7460  -14.2120  -22.2880   N 0  0  0  0  0  0  0  0  0  0  0  0
   22.8380  -15.7200  -18.6890   O 0  0  0  0  0  0  0  0  0  0  0  0
   25.9380  -13.1120  -25.8940   S 0  0  0  0  0  0  0  0  0  0  0  0
 19 13  1  0  0  0  0
 19 12  1  0  0  0  0
 13 14  1  0  0  0  0
 14 22  1  0  0  0  0
 14 10  2  0  0  0  0
 12 11  1  0  0  0  0
 22  8  1  0  0  0  0
 10 11  1  0  0  0  0
 10  9  1  0  0  0  0
  8  9  2  0  0  0  0
  8  7  1  0  0  0  0
 18  7  1  0  0  0  0
 18  6  1  0  0  0  0
  7 20  2  0  0  0  0
  5  6  2  0  0  0  0
  5  4  1  0  0  0  0
  6 15  1  0  0  0  0
 20 15  1  0  0  0  0
  4 16  1  0  0  0  0
  4  3  2  0  0  0  0
 15  2  2  0  0  0  0
  3  2  1  0  0  0  0
  2  1  1  0  0  0  0
 17  1  1  0  0  0  0
  1 21  2  0  0  0  0
M  END
>  <InstanceId>
5XSR_8EC_A_401

>  <ChemCompId>
8EC

>  <PdbId>
5XSR

>  <ChainId>
A

>  <ResidueNumber>
401

>  <InsertionCode>


>  <Model>
1

>  <AltIds>


>  <MissingHeavyAtoms>
0

>  <ObservedFormula>
C15 N4 O S F

>  <Name>
6-fluoranyl-2-(4,5,6,7-tetrahydrothieno[2,3-c]pyridin-2-yl)-1~{H}-benzimidazole-4-carboxamide

>  <SystematicName>
6-fluoranyl-2-(4,5,6,7-tetrahydrothieno[2,3-c]pyridin-2-yl)-1~{H}-benzimidazole-4-carboxamide

>  <Synonyms>


>  <Type>
NON-POLYMER

>  <Formula>
C15 H13 F N4 O S

>  <MolecularWeight>
316.353

>  <ModifiedDate>
2018-04-20

>  <Parent>


>  <OneLetterCode>


>  <SubcomponentList>


>  <AmbiguousFlag>
N

>  <InChI>
InChI=1S/C15H13FN4OS/c16-8-4-9(14(17)21)13-10(5-8)19-15(20-13)11-3-7-1-2-18-6-12(7)22-11/h3-5,18H,1-2,6H2,(H2,17,21)(H,19,20)

>  <InChIKey>
DAIMOGAYMHVUBZ-UHFFFAOYSA-N

>  <SMILES>
c1c(cc2c(c1C(=O)N)nc([nH]2)c3cc4c(s3)CNCC4)F

$$$$
