2VW2_NHE_A_1000
  RCSB PDB08012018043D
Coordinates from PDB:2VW2:A:1000 Model:1 without hydrogens
 13 13  0  0  0  0            999 V2000
   -7.8310   77.2760   20.2640   C 0  0  0  0  0  0  0  0  0  0  0  0
   -6.9230   77.0130   21.4710   C 0  0  0  0  0  0  0  0  0  0  0  0
   -5.6320   76.2430   21.1580   C 0  0  0  0  0  0  0  0  0  0  0  0
   -5.8500   74.9930   20.2930   C 0  0  0  0  0  0  0  0  0  0  0  0
   -4.8970   75.8610   22.3610   N 0  0  0  0  0  0  0  0  0  0  0  0
   -4.5790   76.7680   23.4500   C 0  0  0  0  0  0  0  0  0  0  0  0
   -3.2820   76.3610   24.1420   C 0  0  0  0  0  0  0  0  0  0  0  0
   -2.7870   77.4830   25.2760   S 0  0  0  0  0  0  0  0  0  0  0  0
   -3.8400   77.7170   26.2940   O 0  0  0  0  0  0  0  0  0  0  0  0
   -2.4810   78.7650   24.6090   O 0  0  0  0  0  0  0  0  0  0  0  0
   -1.5650   76.9580   25.9240   O 0  0  0  0  0  0  0  0  0  0  0  0
   -7.0830   75.0150   19.3840   C 0  0  0  0  0  0  0  0  0  0  0  0
   -7.5240   76.4300   19.0280   C 0  0  0  0  0  0  0  0  0  0  0  0
  1  2  1  0  0  0  0
  1 13  1  0  0  0  0
  2  3  1  0  0  0  0
  3  4  1  0  0  0  0
  3  5  1  0  0  0  0
  4 12  1  0  0  0  0
  5  6  1  0  0  0  0
  6  7  1  0  0  0  0
  7  8  1  0  0  0  0
  8  9  2  0  0  0  0
  8 10  2  0  0  0  0
  8 11  1  0  0  0  0
 12 13  1  0  0  0  0
M  END
>  <InstanceId>
2VW2_NHE_A_1000

>  <ChemCompId>
NHE

>  <PdbId>
2VW2

>  <ChainId>
A

>  <ResidueNumber>
1000

>  <InsertionCode>


>  <Model>
1

>  <AltIds>


>  <MissingHeavyAtoms>
0

>  <ObservedFormula>
C8 N O3 S

>  <Name>
2-[N-CYCLOHEXYLAMINO]ETHANE SULFONIC ACID

>  <SystematicName>
2-(cyclohexylamino)ethanesulfonic acid

>  <Synonyms>
N-CYCLOHEXYLTAURINE; CHES

>  <Type>
NON-POLYMER

>  <Formula>
C8 H17 N O3 S

>  <MolecularWeight>
207.29

>  <ModifiedDate>
2020-06-17

>  <Parent>


>  <OneLetterCode>


>  <SubcomponentList>


>  <AmbiguousFlag>
N

>  <InChI>
InChI=1S/C8H17NO3S/c10-13(11,12)7-6-9-8-4-2-1-3-5-8/h8-9H,1-7H2,(H,10,11,12)

>  <InChIKey>
MKWKNSIESPFAQN-UHFFFAOYSA-N

>  <SMILES>
C1CCC(CC1)NCCS(=O)(=O)O

$$$$
