3D9Z_D9Z_A_263
  RCSB PDB08012018493D
Coordinates from PDB:3D9Z:A:263 Model:1 without hydrogens
 16 17  0  0  0  0            999 V2000
   -7.4330    0.6790   16.6650   O 0  0  0  0  0  0  0  0  0  0  0  0
   -6.0400    0.4340   16.8960   S 0  0  0  0  0  0  0  0  0  0  0  0
   -5.6600    0.5280   18.2670   O 0  0  0  0  0  0  0  0  0  0  0  0
   -5.6170   -0.9840   16.3240   N 0  0  0  0  0  0  0  0  0  0  0  0
   -5.2560    1.6870   16.1700   C 0  0  0  0  0  0  0  0  0  0  0  0
   -5.8450    2.9550   15.1770   S 0  0  0  0  0  0  0  0  0  0  0  0
   -3.9180    1.6980   16.3110   N 0  0  0  0  0  0  0  0  0  0  0  0
   -3.3600    2.6980   15.5570   N 0  0  0  0  0  0  0  0  0  0  0  0
   -4.2210    3.4800   14.8850   C 0  0  0  0  0  0  0  0  0  0  0  0
   -3.7710    4.5600   14.1230   C 0  0  0  0  0  0  0  0  0  0  0  0
   -2.4180    4.8460   14.0190   C 0  0  0  0  0  0  0  0  0  0  0  0
   -4.6800    5.3520   13.4860   C 0  0  0  0  0  0  0  0  0  0  0  0
   -4.3390    6.4230   12.6900   C 0  0  0  0  0  0  0  0  0  0  0  0
   -2.9740    6.7100   12.5720   C 0  0  0  0  0  0  0  0  0  0  0  0
   -2.0270    5.9450   13.2300   C 0  0  0  0  0  0  0  0  0  0  0  0
   -6.3760    5.3160   13.4270  Cl 0  0  0  0  0  0  0  0  0  0  0  0
  1  2  2  0  0  0  0
  2  3  2  0  0  0  0
  2  4  1  0  0  0  0
  2  5  1  0  0  0  0
  5  6  1  0  0  0  0
  5  7  2  0  0  0  0
  6  9  1  0  0  0  0
  7  8  1  0  0  0  0
  8  9  2  0  0  0  0
  9 10  1  0  0  0  0
 10 11  2  0  0  0  0
 10 12  1  0  0  0  0
 11 15  1  0  0  0  0
 12 13  2  0  0  0  0
 12 16  1  0  0  0  0
 13 14  1  0  0  0  0
 14 15  2  0  0  0  0
M  END
>  <InstanceId>
3D9Z_D9Z_A_263

>  <ChemCompId>
D9Z

>  <PdbId>
3D9Z

>  <ChainId>
A

>  <ResidueNumber>
263

>  <InsertionCode>


>  <Model>
1

>  <AltIds>


>  <MissingHeavyAtoms>
0

>  <ObservedFormula>
C8 N3 O2 S2 Cl

>  <Name>
5-(2-chlorophenyl)-1,3,4-thiadiazole-2-sulfonamide

>  <SystematicName>
5-(2-chlorophenyl)-1,3,4-thiadiazole-2-sulfonamide

>  <Synonyms>


>  <Type>
NON-POLYMER

>  <Formula>
C8 H6 Cl N3 O2 S2

>  <MolecularWeight>
275.735

>  <ModifiedDate>
2011-06-04

>  <Parent>


>  <OneLetterCode>


>  <SubcomponentList>


>  <AmbiguousFlag>
N

>  <InChI>
InChI=1S/C8H6ClN3O2S2/c9-6-4-2-1-3-5(6)7-11-12-8(15-7)16(10,13)14/h1-4H,(H2,10,13,14)

>  <InChIKey>
PZVGOWIIHCUHAO-UHFFFAOYSA-N

>  <SMILES>
c1ccc(c(c1)c2nnc(s2)S(=O)(=O)N)Cl

$$$$
