5OHA_9UW_A_202
  RCSB PDB08022002413D
Coordinates from PDB:5OHA:A:202 Model:1 without hydrogens
  7  7  0  0  0  0            999 V2000
   21.4400   16.1140   -7.4920   O 0  0  0  0  0  0  0  0  0  0  0  0
   22.4800   16.8730   -7.5730   C 0  0  0  0  0  0  0  0  0  0  0  0
   22.6980   18.0850   -6.7140   C 0  0  0  0  0  0  0  0  0  0  0  0
   24.0280   18.5070   -7.2120   N 0  0  0  0  0  0  0  0  0  0  0  0
   24.3610   17.5490   -8.1030   C 0  0  0  0  0  0  0  0  0  0  0  0
   23.4880   16.5250   -8.4070   N 0  0  0  0  0  0  0  0  0  0  0  0
   25.9170   17.6480   -8.9750   S 0  0  0  0  0  0  0  0  0  0  0  0
  7  5  2  0  0  0  0
  6  5  1  0  0  0  0
  6  2  1  0  0  0  0
  5  4  1  0  0  0  0
  2  1  2  0  0  0  0
  2  3  1  0  0  0  0
  4  3  2  0  0  0  0
M  END
>  <InstanceId>
5OHA_9UW_A_202

>  <ChemCompId>
9UW

>  <PdbId>
5OHA

>  <ChainId>
A

>  <ResidueNumber>
202

>  <InsertionCode>


>  <Model>
1

>  <AltIds>


>  <MissingHeavyAtoms>
0

>  <ObservedFormula>
C3 N2 O S

>  <Name>
2-sulfanylideneimidazol-4-one

>  <SystematicName>
2-sulfanylideneimidazol-4-one

>  <Synonyms>


>  <Type>
NON-POLYMER

>  <Formula>
C3 H2 N2 O S

>  <MolecularWeight>
114.126

>  <ModifiedDate>
2018-10-05

>  <Parent>


>  <OneLetterCode>


>  <SubcomponentList>


>  <AmbiguousFlag>
N

>  <InChI>
InChI=1S/C3H2N2OS/c6-2-1-4-3(7)5-2/h1H,(H,5,6,7)

>  <InChIKey>
KAKLKODZMNCHIC-UHFFFAOYSA-N

>  <SMILES>
C1=NC(=S)NC1=O

$$$$
