5MNN_MRZ_A_302
  RCSB PDB08022002243D
Coordinates from PDB:5MNN:A:302 Model:1 without hydrogens
  9  9  0  0  0  0            999 V2000
   -1.6600  -13.4790  -14.4030   C 0  0  0  0  0  0  0  0  0  0  0  0
   -2.4490  -12.9380  -15.5640   C 0  0  0  0  0  0  0  0  0  0  0  0
   -1.7360  -13.1960  -16.8800   C 0  0  0  0  0  0  0  0  0  0  0  0
   -1.5610  -14.6470  -17.0970   N 0  0  0  0  0  0  0  0  0  0  0  0
   -0.6680  -15.1240  -16.0060   C 0  0  0  0  0  0  0  0  0  0  0  0
   -1.2980  -14.9380  -14.6370   C 0  0  0  0  0  0  0  0  0  0  0  0
   -1.9870  -15.3700  -18.1450   C 0  0  0  0  0  0  0  0  0  0  0  0
   -1.6160  -16.6270  -18.2960   N 0  0  0  0  0  0  0  0  0  0  0  0
   -2.7180  -14.8350  -19.0980   N 0  0  0  0  0  0  0  0  0  0  0  0
  9  7  2  0  0  0  0
  5  6  1  0  0  0  0
  5  4  1  0  0  0  0
  6  1  1  0  0  0  0
  7  4  1  0  0  0  0
  7  8  1  0  0  0  0
  4  3  1  0  0  0  0
  1  2  1  0  0  0  0
  3  2  1  0  0  0  0
M  END
>  <InstanceId>
5MNN_MRZ_A_302

>  <ChemCompId>
MRZ

>  <PdbId>
5MNN

>  <ChainId>
A

>  <ResidueNumber>
302

>  <InsertionCode>


>  <Model>
1

>  <AltIds>


>  <MissingHeavyAtoms>
0

>  <ObservedFormula>
C6 N3

>  <Name>
piperidine-1-carboximidamide

>  <SystematicName>
piperidine-1-carboximidamide

>  <Synonyms>


>  <Type>
NON-POLYMER

>  <Formula>
C6 H13 N3

>  <MolecularWeight>
127.188

>  <ModifiedDate>
2015-03-20

>  <Parent>


>  <OneLetterCode>


>  <SubcomponentList>


>  <AmbiguousFlag>
N

>  <InChI>
InChI=1S/C6H13N3/c7-6(8)9-4-2-1-3-5-9/h1-5H2,(H3,7,8)

>  <InChIKey>
QUUYRYYUKNNNNS-UHFFFAOYSA-N

>  <SMILES>
[H]/N=C(\N)/N1CCCCC1

$$$$
