3V5P_C88_A_1
  RCSB PDB08012020463D
Coordinates from PDB:3V5P:A:1 Model:1 without hydrogens
 26 29  0  0  0  0            999 V2000
   28.8170   17.4320   29.3050   C 0  0  0  0  0  0  0  0  0  0  0  0
   29.3390   17.8460   27.9220   C 0  0  0  0  0  0  0  0  0  0  0  0
   28.2270   18.4280   27.1630   N 0  0  0  0  0  0  0  0  0  0  0  0
   27.2200   17.3860   26.8920   C 0  0  0  0  0  0  0  0  0  0  0  0
   26.6140   16.8700   28.2150   C 0  0  0  0  0  0  0  0  0  0  0  0
   27.6810   16.3910   29.2170   C 0  0  0  0  0  0  0  0  0  0  0  0
   27.0480   16.2670   30.6130   C 0  0  0  0  0  0  0  0  0  0  0  0
   26.0680   15.1710   30.8450   N 0  0  0  0  0  0  0  0  0  0  0  0
   24.8900   15.3960   31.1450   N 0  0  0  0  0  0  0  0  0  0  0  0
   26.3310   13.8590   30.8490   C 0  0  0  0  0  0  0  0  0  0  0  0
   27.4440   13.1320   30.6170   N 0  0  0  0  0  0  0  0  0  0  0  0
   27.4040   11.8080   30.6710   C 0  0  0  0  0  0  0  0  0  0  0  0
   26.2830   11.1540   30.9690   N 0  0  0  0  0  0  0  0  0  0  0  0
   25.1430   11.8160   31.2340   C 0  0  0  0  0  0  0  0  0  0  0  0
   24.0470   11.1180   31.5280   N 0  0  0  0  0  0  0  0  0  0  0  0
   25.1400   13.2140   31.1810   C 0  0  0  0  0  0  0  0  0  0  0  0
   24.2190   14.2550   31.3450   C 0  0  0  0  0  0  0  0  0  0  0  0
   22.8770   14.1980   31.7330   C 0  0  0  0  0  0  0  0  0  0  0  0
   22.5120   13.4630   32.8740   C 0  0  0  0  0  0  0  0  0  0  0  0
   21.1890   13.4510   33.3250   C 0  0  0  0  0  0  0  0  0  0  0  0
   20.7840   12.6150   34.5330   C 0  0  0  0  0  0  0  0  0  0  0  0
   20.2240   14.2000   32.6570   C 0  0  0  0  0  0  0  0  0  0  0  0
   18.9570   14.1460   33.1180   O 0  0  0  0  0  0  0  0  0  0  0  0
   18.0010   15.0350   32.5030   C 0  0  0  0  0  0  0  0  0  0  0  0
   20.5790   14.9610   31.5310   C 0  0  0  0  0  0  0  0  0  0  0  0
   21.9040   14.9700   31.0890   C 0  0  0  0  0  0  0  0  0  0  0  0
  4  3  1  0  0  0  0
  4  5  1  0  0  0  0
  3  2  1  0  0  0  0
  2  1  1  0  0  0  0
  5  6  1  0  0  0  0
  6  1  1  0  0  0  0
  6  7  1  0  0  0  0
  7  8  1  0  0  0  0
 11 12  2  0  0  0  0
 11 10  1  0  0  0  0
 12 13  1  0  0  0  0
  8 10  1  0  0  0  0
  8  9  1  0  0  0  0
 10 16  2  0  0  0  0
 13 14  2  0  0  0  0
 26 25  2  0  0  0  0
 26 18  1  0  0  0  0
  9 17  2  0  0  0  0
 16 14  1  0  0  0  0
 16 17  1  0  0  0  0
 14 15  1  0  0  0  0
 17 18  1  0  0  0  0
 25 22  1  0  0  0  0
 18 19  2  0  0  0  0
 24 23  1  0  0  0  0
 22 23  1  0  0  0  0
 22 20  2  0  0  0  0
 19 20  1  0  0  0  0
 20 21  1  0  0  0  0
M  END
>  <InstanceId>
3V5P_C88_A_1

>  <ChemCompId>
C88

>  <PdbId>
3V5P

>  <ChainId>
A

>  <ResidueNumber>
1

>  <InsertionCode>


>  <Model>
1

>  <AltIds>


>  <MissingHeavyAtoms>
0

>  <ObservedFormula>
C19 N6 O

>  <Name>
3-(4-methoxy-3-methylphenyl)-1-(piperidin-4-ylmethyl)-1H-pyrazolo[3,4-d]pyrimidin-4-amine

>  <SystematicName>
3-(4-methoxy-3-methyl-phenyl)-1-(piperidin-4-ylmethyl)pyrazolo[3,4-d]pyrimidin-4-amine

>  <Synonyms>


>  <Type>
NON-POLYMER

>  <Formula>
C19 H24 N6 O

>  <MolecularWeight>
352.433

>  <ModifiedDate>
2012-03-09

>  <Parent>


>  <OneLetterCode>


>  <SubcomponentList>


>  <AmbiguousFlag>
N

>  <InChI>
InChI=1S/C19H24N6O/c1-12-9-14(3-4-15(12)26-2)17-16-18(20)22-11-23-19(16)25(24-17)10-13-5-7-21-8-6-13/h3-4,9,11,13,21H,5-8,10H2,1-2H3,(H2,20,22,23)

>  <InChIKey>
MQULVMDBNSSIMR-UHFFFAOYSA-N

>  <SMILES>
Cc1cc(ccc1OC)c2c3c(ncnc3n(n2)CC4CCNCC4)N

$$$$
