5J9X_6GC_A_301
  RCSB PDB08022001533D
Coordinates from PDB:5J9X:A:301 Model:1 without hydrogens
 29 31  0  0  0  0            999 V2000
    0.0920   38.0230  -24.6890   C 0  0  0  0  0  0  0  0  0  0  0  0
   -0.3750   33.1730  -23.1650   C 0  0  0  0  0  0  0  0  0  0  0  0
   -1.6520   33.4700  -23.6440   C 0  0  0  0  0  0  0  0  0  0  0  0
    0.8110   33.6700  -23.8650   C 0  0  0  0  0  0  0  0  0  0  0  0
   -0.6750   35.6050  -26.6490   C 0  0  0  0  0  0  0  0  0  0  0  0
   -0.4010   37.3680  -27.9300   C 0  0  0  0  0  0  0  0  0  0  0  0
    0.6420   37.4450  -25.8300   C 0  0  0  0  0  0  0  0  0  0  0  0
    2.2100   38.6950  -23.7750   C 0  0  0  0  0  0  0  0  0  0  0  0
    2.2490   33.3670  -23.5020   C 0  0  0  0  0  0  0  0  0  0  0  0
    4.8600   32.0010  -25.1690   C 0  0  0  0  0  0  0  0  0  0  0  0
    6.9100   31.5660  -26.5190   C 0  0  0  0  0  0  0  0  0  0  0  0
   -1.7920   34.2600  -24.7860   C 0  0  0  0  0  0  0  0  0  0  0  0
   -0.5900   34.7380  -25.4770   C 0  0  0  0  0  0  0  0  0  0  0  0
    0.6470   34.4260  -24.9860   C 0  0  0  0  0  0  0  0  0  0  0  0
   -1.4020   35.3850  -27.7800   N 0  0  0  0  0  0  0  0  0  0  0  0
   -0.1200   36.8410  -26.7620   N 0  0  0  0  0  0  0  0  0  0  0  0
   -3.0020   34.5790  -25.3110   O 0  0  0  0  0  0  0  0  0  0  0  0
   -0.2020   32.4230  -22.0540   O 0  0  0  0  0  0  0  0  0  0  0  0
   -1.1860   36.5170  -28.5790   N 0  0  0  0  0  0  0  0  0  0  0  0
   -0.0000   38.5170  -28.3110   O 0  0  0  0  0  0  0  0  0  0  0  0
    2.1030   37.5390  -25.9060   C 0  0  0  0  0  0  0  0  0  0  0  0
    2.8460   38.1470  -24.8930   C 0  0  0  0  0  0  0  0  0  0  0  0
    2.7550   32.1640  -23.8240   N 0  0  0  0  0  0  0  0  0  0  0  0
    2.9340   34.2370  -23.0180   O 0  0  0  0  0  0  0  0  0  0  0  0
    4.2020   31.7900  -23.7930   C 0  0  0  0  0  0  0  0  0  0  0  0
    0.8290   38.6250  -23.6700   C 0  0  0  0  0  0  0  0  0  0  0  0
    1.8890   31.0690  -24.2290   C 0  0  0  0  0  0  0  0  0  0  0  0
    6.0860   31.1070  -25.3450   C 0  0  0  0  0  0  0  0  0  0  0  0
    2.6690   37.0180  -27.0030   F 0  0  0  0  0  0  0  0  0  0  0  0
 18  2  1  0  0  0  0
 24  9  2  0  0  0  0
  2  3  2  0  0  0  0
  2  4  1  0  0  0  0
  9  4  1  0  0  0  0
  9 23  1  0  0  0  0
  3 12  1  0  0  0  0
 26  8  2  0  0  0  0
 26  1  1  0  0  0  0
  4 14  2  0  0  0  0
  8 22  1  0  0  0  0
 25 23  1  0  0  0  0
 25 10  1  0  0  0  0
 23 27  1  0  0  0  0
  1  7  2  0  0  0  0
 12 17  1  0  0  0  0
 12 13  2  0  0  0  0
 22 21  2  0  0  0  0
 14 13  1  0  0  0  0
 28 10  1  0  0  0  0
 28 11  1  0  0  0  0
 13  5  1  0  0  0  0
  7 21  1  0  0  0  0
  7 16  1  0  0  0  0
 21 29  1  0  0  0  0
  5 16  1  0  0  0  0
  5 15  2  0  0  0  0
 16  6  1  0  0  0  0
 15 19  1  0  0  0  0
  6 20  2  0  0  0  0
  6 19  1  0  0  0  0
M  END
>  <InstanceId>
5J9X_6GC_A_301

>  <ChemCompId>
6GC

>  <PdbId>
5J9X

>  <ChainId>
A

>  <ResidueNumber>
301

>  <InsertionCode>


>  <Model>
1

>  <AltIds>


>  <MissingHeavyAtoms>
0

>  <ObservedFormula>
C20 N4 O4 F

>  <Name>
N-butyl-5-[4-(2-fluorophenyl)-5-oxo-4,5-dihydro-1H-1,2,4-triazol-3-yl]-2,4-dihydroxy-N-methylbenzamide

>  <SystematicName>
~{N}-butyl-5-[4-(2-fluorophenyl)-5-oxidanylidene-1~{H}-1,2,4-triazol-3-yl]-~{N}-methyl-2,4-bis(oxidanyl)benzamide

>  <Synonyms>


>  <Type>
NON-POLYMER

>  <Formula>
C20 H21 F N4 O4

>  <MolecularWeight>
400.404

>  <ModifiedDate>
2017-12-01

>  <Parent>


>  <OneLetterCode>


>  <SubcomponentList>


>  <AmbiguousFlag>
N

>  <InChI>
InChI=1S/C20H21FN4O4/c1-3-4-9-24(2)19(28)13-10-12(16(26)11-17(13)27)18-22-23-20(29)25(18)15-8-6-5-7-14(15)21/h5-8,10-11,26-27H,3-4,9H2,1-2H3,(H,23,29)

>  <InChIKey>
LRPFOJAUXAMOQR-UHFFFAOYSA-N

>  <SMILES>
CCCCN(C)C(=O)c1cc(c(cc1O)O)C2=NNC(=O)N2c3ccccc3F

$$$$
