5IA2_L66_A_1001
  RCSB PDB08022001423D
Coordinates from PDB:5IA2:A:1001 Model:1 without hydrogens
 31 35  0  0  0  0            999 V2000
  -85.2070  -10.6520    5.1060   O 0  0  0  0  0  0  0  0  0  0  0  0
  -86.2290  -11.0360    5.6700   C 0  0  0  0  0  0  0  0  0  0  0  0
  -87.3950  -11.1380    4.9740   N 0  0  0  0  0  0  0  0  0  0  0  0
  -88.5430  -11.5470    5.5680   C 0  0  0  0  0  0  0  0  0  0  0  0
  -89.7670  -11.6420    4.8260   O 0  0  0  0  0  0  0  0  0  0  0  0
  -86.2160  -11.3530    6.9850   N 0  0  0  0  0  0  0  0  0  0  0  0
  -84.9440  -11.2480    7.7810   C 0  0  0  0  0  0  0  0  0  0  0  0
  -87.3180  -11.7720    7.6210   C 0  0  0  0  0  0  0  0  0  0  0  0
  -88.5630  -11.8950    6.9200   C 0  0  0  0  0  0  0  0  0  0  0  0
  -87.5480  -12.1500    8.9250   N 0  0  0  0  0  0  0  0  0  0  0  0
  -88.8730  -12.4810    9.0340   C 0  0  0  0  0  0  0  0  0  0  0  0
  -89.5160  -12.3420    7.8310   N 0  0  0  0  0  0  0  0  0  0  0  0
  -90.8210  -12.6860    7.9900   C 0  0  0  0  0  0  0  0  0  0  0  0
  -89.7420  -12.9280    9.9640   N 0  0  0  0  0  0  0  0  0  0  0  0
  -90.9620  -13.0610    9.3880   C 0  0  0  0  0  0  0  0  0  0  0  0
  -92.1500  -13.5530   10.2030   C 0  0  0  0  0  0  0  0  0  0  0  0
  -92.7150  -14.8210    9.9480   C 0  0  0  0  0  0  0  0  0  0  0  0
  -92.1780  -15.6950    8.7760   C 0  0  0  0  0  0  0  0  0  0  0  0
  -93.7560  -15.2700   10.7140   C 0  0  0  0  0  0  0  0  0  0  0  0
  -94.2490  -14.4360   11.8020   C 0  0  0  0  0  0  0  0  0  0  0  0
  -92.6190  -12.7450   11.2760   C 0  0  0  0  0  0  0  0  0  0  0  0
  -93.6640  -13.1900   12.0500   C 0  0  0  0  0  0  0  0  0  0  0  0
  -94.1010  -12.4130   13.0440   O 0  0  0  0  0  0  0  0  0  0  0  0
  -89.3850  -13.1730   11.4010   C 0  0  0  0  0  0  0  0  0  0  0  0
  -89.3190  -14.4580   11.9450   C 0  0  0  0  0  0  0  0  0  0  0  0
  -88.9820  -14.6060   13.2820   C 0  0  0  0  0  0  0  0  0  0  0  0
  -88.7250  -13.4890   14.0620   C 0  0  0  0  0  0  0  0  0  0  0  0
  -88.7980  -12.2270   13.5260   C 0  0  0  0  0  0  0  0  0  0  0  0
  -89.1360  -12.0720   12.1590   C 0  0  0  0  0  0  0  0  0  0  0  0
  -89.2190  -10.8120   11.5580   O 0  0  0  0  0  0  0  0  0  0  0  0
  -88.8560   -9.6830   12.3670   C 0  0  0  0  0  0  0  0  0  0  0  0
 27 28  2  0  0  0  0
 27 26  1  0  0  0  0
 28 29  1  0  0  0  0
 26 25  2  0  0  0  0
 29 30  1  0  0  0  0
 29 24  2  0  0  0  0
 25 24  1  0  0  0  0
 31 30  1  0  0  0  0
 24 14  1  0  0  0  0
 23 22  1  0  0  0  0
 22 21  2  0  0  0  0
 22 20  1  0  0  0  0
 14 11  1  0  0  0  0
 14 15  1  0  0  0  0
 21 16  1  0  0  0  0
 10 11  2  0  0  0  0
 10  8  1  0  0  0  0
  7  6  1  0  0  0  0
 20 19  2  0  0  0  0
 11 12  1  0  0  0  0
 16 15  1  0  0  0  0
 16 17  2  0  0  0  0
 15 13  2  0  0  0  0
 19 17  1  0  0  0  0
  8  6  1  0  0  0  0
  8  9  2  0  0  0  0
 17 18  1  0  0  0  0
  6  2  1  0  0  0  0
 12 13  1  0  0  0  0
 12  9  1  0  0  0  0
  9  4  1  0  0  0  0
  2  1  2  0  0  0  0
  2  3  1  0  0  0  0
  4  3  1  0  0  0  0
  4  5  2  0  0  0  0
M  END
>  <InstanceId>
5IA2_L66_A_1001

>  <ChemCompId>
L66

>  <PdbId>
5IA2

>  <ChainId>
A

>  <ResidueNumber>
1001

>  <InsertionCode>


>  <Model>
1

>  <AltIds>


>  <MissingHeavyAtoms>
0

>  <ObservedFormula>
C22 N5 O4

>  <Name>
7-(5-hydroxy-2-methylphenyl)-8-(2-methoxyphenyl)-1-methyl-1H-imidazo[2,1-f]purine-2,4(3H,8H)-dione

>  <SystematicName>
6-(2-methoxyphenyl)-4-methyl-7-(2-methyl-5-oxidanyl-phenyl)purino[7,8-a]imidazole-1,3-dione

>  <Synonyms>


>  <Type>
NON-POLYMER

>  <Formula>
C22 H19 N5 O4

>  <MolecularWeight>
417.417

>  <ModifiedDate>
2013-01-18

>  <Parent>


>  <OneLetterCode>


>  <SubcomponentList>


>  <AmbiguousFlag>
N

>  <InChI>
InChI=1S/C22H19N5O4/c1-12-8-9-13(28)10-14(12)16-11-26-18-19(25(2)22(30)24-20(18)29)23-21(26)27(16)15-6-4-5-7-17(15)31-3/h4-11,28H,1-3H3,(H,24,29,30)

>  <InChIKey>
JTWMOWRMSZZHDR-UHFFFAOYSA-N

>  <SMILES>
Cc1ccc(cc1c2cn3c4c(nc3n2c5ccccc5OC)N(C(=O)NC4=O)C)O

$$$$
