3SU1_TSV_A_100
  RCSB PDB08012020303D
Coordinates from PDB:3SU1:A:100 Model:1 without hydrogens
 51 56  0  0  0  0            999 V2000
  -12.5010   -6.1690   17.0500   C 0  0  0  0  0  0  0  0  0  0  0  0
  -15.4910  -14.1150   18.8240   F 0  0  0  0  0  0  0  0  0  0  0  0
  -18.1430   -9.4490   14.7320   N 0  0  0  0  0  0  0  0  0  0  0  0
  -19.1140  -10.9770   16.1970   O 0  0  0  0  0  0  0  0  0  0  0  0
   -8.8420   -6.0870   13.6280   S 0  0  0  0  0  0  0  0  0  0  0  0
  -12.1340   -6.6390   15.6340   C 0  0  0  0  0  0  0  0  0  0  0  0
  -12.4060   -8.0260   15.3590   N 0  0  0  0  0  0  0  0  0  0  0  0
  -17.8270  -11.6650   14.3980   O 0  0  0  0  0  0  0  0  0  0  0  0
  -13.4200   -5.8260   15.8840   C 0  0  0  0  0  0  0  0  0  0  0  0
  -10.1160   -6.7570   14.2850   N 0  0  0  0  0  0  0  0  0  0  0  0
  -15.5410   -8.3630   15.2350   O 0  0  0  0  0  0  0  0  0  0  0  0
  -10.9140   -5.9930   15.0550   C 0  0  0  0  0  0  0  0  0  0  0  0
  -13.4150  -14.4410   15.0170   N 0  0  0  0  0  0  0  0  0  0  0  0
   -7.9220   -5.5760   14.6020   O 0  0  0  0  0  0  0  0  0  0  0  0
  -13.5010   -4.3750   15.4940   C 0  0  0  0  0  0  0  0  0  0  0  0
  -14.8970   -9.8470   13.6950   N 0  0  0  0  0  0  0  0  0  0  0  0
  -12.5170  -14.0390   12.9730   O 0  0  0  0  0  0  0  0  0  0  0  0
  -18.1880  -13.0770   17.0080   C 0  0  0  0  0  0  0  0  0  0  0  0
   -9.2600   -5.0750   12.6820   O 0  0  0  0  0  0  0  0  0  0  0  0
  -20.2640  -12.0400   17.9460   C 0  0  0  0  0  0  0  0  0  0  0  0
  -13.1290   -7.6620   13.2740   O 0  0  0  0  0  0  0  0  0  0  0  0
  -20.2930  -12.9890   15.6360   C 0  0  0  0  0  0  0  0  0  0  0  0
  -14.0800  -12.5780   13.8200   O 0  0  0  0  0  0  0  0  0  0  0  0
  -19.4480  -12.2730   16.6850   C 0  0  0  0  0  0  0  0  0  0  0  0
  -10.6590   -4.8260   15.2860   O 0  0  0  0  0  0  0  0  0  0  0  0
  -14.4600   -3.9060   14.6820   C 0  0  0  0  0  0  0  0  0  0  0  0
  -12.9660   -8.4140   14.2220   C 0  0  0  0  0  0  0  0  0  0  0  0
  -12.8620  -15.7860   15.2750   C 0  0  0  0  0  0  0  0  0  0  0  0
  -15.5530   -4.7720   14.0870   C 0  0  0  0  0  0  0  0  0  0  0  0
  -13.8340  -17.3370   18.6360   C 0  0  0  0  0  0  0  0  0  0  0  0
  -13.5070   -9.8120   14.1770   C 0  0  0  0  0  0  0  0  0  0  0  0
  -13.2320  -17.2560   17.3850   C 0  0  0  0  0  0  0  0  0  0  0  0
  -14.5920  -16.2820   19.1350   C 0  0  0  0  0  0  0  0  0  0  0  0
  -15.4250   -4.8370   12.5710   C 0  0  0  0  0  0  0  0  0  0  0  0
  -16.6000   -5.6080   11.9560   C 0  0  0  0  0  0  0  0  0  0  0  0
  -18.3250  -10.7320   15.0250   C 0  0  0  0  0  0  0  0  0  0  0  0
  -14.7640  -15.1340   18.3550   C 0  0  0  0  0  0  0  0  0  0  0  0
  -16.5080   -7.1200   12.2010   C 0  0  0  0  0  0  0  0  0  0  0  0
   -8.1130   -7.2960   12.7250   C 0  0  0  0  0  0  0  0  0  0  0  0
  -13.4140  -16.0930   16.6340   C 0  0  0  0  0  0  0  0  0  0  0  0
  -17.5230   -7.6140   13.2370   C 0  0  0  0  0  0  0  0  0  0  0  0
  -14.1560  -15.0750   17.1210   C 0  0  0  0  0  0  0  0  0  0  0  0
  -12.7710  -10.6690   13.1650   C 0  0  0  0  0  0  0  0  0  0  0  0
  -17.2140   -9.0310   13.7080   C 0  0  0  0  0  0  0  0  0  0  0  0
   -6.6620   -7.0960   12.2880   C 0  0  0  0  0  0  0  0  0  0  0  0
  -13.8160  -11.6710   12.7590   C 0  0  0  0  0  0  0  0  0  0  0  0
  -14.2130  -13.9410   16.1410   C 0  0  0  0  0  0  0  0  0  0  0  0
   -6.9850   -8.0690   13.4110   C 0  0  0  0  0  0  0  0  0  0  0  0
  -15.8170   -9.0730   14.2730   C 0  0  0  0  0  0  0  0  0  0  0  0
  -15.0550  -10.8190   12.5990   C 0  0  0  0  0  0  0  0  0  0  0  0
  -13.2520  -13.7560   13.9040   C 0  0  0  0  0  0  0  0  0  0  0  0
  1  9  1  0  0  0  0
  1  6  1  0  0  0  0
  2 37  1  0  0  0  0
 36  3  1  0  0  0  0
  3 44  1  0  0  0  0
 24  4  1  0  0  0  0
  4 36  1  0  0  0  0
 14  5  2  0  0  0  0
 10  5  1  0  0  0  0
  5 39  1  0  0  0  0
  5 19  2  0  0  0  0
  9  6  1  0  0  0  0
  6  7  1  0  0  0  0
  6 12  1  0  0  0  0
  7 27  1  0  0  0  0
 36  8  2  0  0  0  0
  9 15  1  0  0  0  0
 12 10  1  0  0  0  0
 11 49  2  0  0  0  0
 25 12  2  0  0  0  0
 47 13  1  0  0  0  0
 28 13  1  0  0  0  0
 13 51  1  0  0  0  0
 15 26  2  0  0  0  0
 31 16  1  0  0  0  0
 49 16  1  0  0  0  0
 16 50  1  0  0  0  0
 51 17  2  0  0  0  0
 18 24  1  0  0  0  0
 20 24  1  0  0  0  0
 27 21  2  0  0  0  0
 24 22  1  0  0  0  0
 51 23  1  0  0  0  0
 23 46  1  0  0  0  0
 26 29  1  0  0  0  0
 31 27  1  0  0  0  0
 40 28  2  0  0  0  0
 29 34  1  0  0  0  0
 33 30  1  0  0  0  0
 30 32  2  0  0  0  0
 31 43  1  0  0  0  0
 32 40  1  0  0  0  0
 33 37  2  0  0  0  0
 34 35  1  0  0  0  0
 38 35  1  0  0  0  0
 37 42  1  0  0  0  0
 41 38  1  0  0  0  0
 48 39  1  0  0  0  0
 39 45  1  0  0  0  0
 42 40  1  0  0  0  0
 44 41  1  0  0  0  0
 42 47  2  0  0  0  0
 43 46  1  0  0  0  0
 49 44  1  0  0  0  0
 48 45  1  0  0  0  0
 46 50  1  0  0  0  0
M  END
>  <InstanceId>
3SU1_TSV_A_100

>  <ChemCompId>
TSV

>  <PdbId>
3SU1

>  <ChainId>
A

>  <ResidueNumber>
100

>  <InsertionCode>


>  <Model>
1

>  <AltIds>


>  <MissingHeavyAtoms>
0

>  <ObservedFormula>
C35 N5 O9 S F

>  <Name>
(2R,6S,12Z,13aS,14aR,16aS)-6-[(tert-butoxycarbonyl)amino]-14a-[(cyclopropylsulfonyl)carbamoyl]-5,16-dioxo-1,2,3,5,6,7,8 ,9,10,11,13a,14,14a,15,16,16a-hexadecahydrocyclopropa[e]pyrrolo[1,2-a][1,4]diazacyclopentadecin-2-yl 4-fluoro-2H-isoindole-2-carboxylate

>  <SystematicName>


>  <Synonyms>
ITMN-191; danoprevir

>  <Type>
NON-POLYMER

>  <Formula>
C35 H44 F N5 O9 S

>  <MolecularWeight>
729.815

>  <ModifiedDate>
2020-06-17

>  <Parent>


>  <OneLetterCode>


>  <SubcomponentList>


>  <AmbiguousFlag>
N

>  <InChI>
InChI=1S/C35H44FN5O9S/c1-34(2,3)50-32(45)37-27-13-8-6-4-5-7-11-22-17-35(22,31(44)39-51(47,48)24-14-15-24)38-29(42)28-16-23(19-41(28)30(27)43)49-33(46)40-18-21-10-9-12-26(36)25(21)20-40/h7,9-12,18,20,22-24,27-28H,4-6,8,13-17,19H2,1-3H3,(H,37,45)(H,38,42)(H,39,44)/b11-7-/t22-,23-,27+,28+,35-/m1/s1

>  <InChIKey>
YUWURHBDLJOUAP-JSZLBQEHSA-N

>  <SMILES>
CC(C)(C)OC(=O)N[C@H]1CCCCC/C=C\[C@@H]2C[C@]2(NC(=O)[C@@H]3C[C@H](CN3C1=O)OC(=O)n4cc5cccc(c5c4)F)C(=O)NS(=O)(=O)C6CC6

$$$$
