3GA5_RGG_A_400
  RCSB PDB08012019053D
Coordinates from PDB:3GA5:A:400 Model:1 without hydrogens
 17 17  0  0  0  0            999 V2000
   -1.0070   -5.2180   -2.9310   O 0  0  0  0  0  0  0  0  0  0  0  0
   -0.1820   -4.1040   -2.5580   C 0  0  0  0  0  0  0  0  0  0  0  0
    0.6030   -4.4910   -1.3140   C 0  0  0  0  0  0  0  0  0  0  0  0
    1.7300   -3.6070   -1.2030   O 0  0  0  0  0  0  0  0  0  0  0  0
   -0.3480   -4.3050   -0.1340   C 0  0  0  0  0  0  0  0  0  0  0  0
    0.3390   -4.5460    1.0790   O 0  0  0  0  0  0  0  0  0  0  0  0
   -0.4170   -4.3050    2.2670   C 0  0  0  0  0  0  0  0  0  0  0  0
    0.3820   -4.8360    3.4550   C 0  0  0  0  0  0  0  0  0  0  0  0
    0.3440   -6.2730    3.4080   O 0  0  0  0  0  0  0  0  0  0  0  0
   -0.1860   -4.3900    4.7930   C 0  0  0  0  0  0  0  0  0  0  0  0
    0.7310   -4.7370    5.8490   O 0  0  0  0  0  0  0  0  0  0  0  0
   -0.4470   -2.8860    4.7920   C 0  0  0  0  0  0  0  0  0  0  0  0
    0.7970   -2.1780    4.7100   O 0  0  0  0  0  0  0  0  0  0  0  0
   -1.3330   -2.5080    3.6090   C 0  0  0  0  0  0  0  0  0  0  0  0
   -0.6890   -2.8980    2.3870   O 0  0  0  0  0  0  0  0  0  0  0  0
   -1.5660   -0.9960    3.5910   C 0  0  0  0  0  0  0  0  0  0  0  0
   -2.0770   -0.5720    2.3160   O 0  0  0  0  0  0  0  0  0  0  0  0
  1  2  1  0  0  0  0
  2  3  1  0  0  0  0
  3  4  1  0  0  0  0
  3  5  1  0  0  0  0
  5  6  1  0  0  0  0
  6  7  1  0  0  0  0
  7  8  1  0  0  0  0
  7 15  1  0  0  0  0
  8  9  1  0  0  0  0
  8 10  1  0  0  0  0
 10 11  1  0  0  0  0
 10 12  1  0  0  0  0
 12 13  1  0  0  0  0
 12 14  1  0  0  0  0
 14 15  1  0  0  0  0
 14 16  1  0  0  0  0
 16 17  1  0  0  0  0
M  END
>  <InstanceId>
3GA5_RGG_A_400

>  <ChemCompId>
RGG

>  <PdbId>
3GA5

>  <ChainId>
A

>  <ResidueNumber>
400

>  <InsertionCode>


>  <Model>
1

>  <AltIds>


>  <MissingHeavyAtoms>
0

>  <ObservedFormula>
C9 O8

>  <Name>
(2R)-2,3-dihydroxypropyl beta-D-galactopyranoside

>  <SystematicName>
(2R,3R,4S,5R,6R)-2-[(2R)-2,3-dihydroxypropoxy]-6-(hydroxymethyl)oxane-3,4,5-triol

>  <Synonyms>
(2R)-glyceryl-beta-D-galactopyranoside; (2R)-2,3-dihydroxypropyl beta-D-galactoside; (2R)-2,3-dihydroxypropyl D-galactoside; (2R)-2,3-dihydroxypropyl galactoside

>  <Type>
D-saccharide

>  <Formula>
C9 H18 O8

>  <MolecularWeight>
254.234

>  <ModifiedDate>
2020-07-17

>  <Parent>
GAL

>  <OneLetterCode>


>  <SubcomponentList>


>  <AmbiguousFlag>
N

>  <InChI>
InChI=1S/C9H18O8/c10-1-4(12)3-16-9-8(15)7(14)6(13)5(2-11)17-9/h4-15H,1-3H2/t4-,5-,6+,7+,8-,9-/m1/s1

>  <InChIKey>
NHJUPBDCSOGIKX-NTXXKDEISA-N

>  <SMILES>
C([C@@H]1[C@@H]([C@@H]([C@H]([C@@H](O1)OC[C@@H](CO)O)O)O)O)O

$$$$
