3C52_PGH_A_404
  RCSB PDB08012018423D
Coordinates from PDB:3C52:A:404 Model:1 without hydrogens
 10  9  0  0  0  0            999 V2000
    2.5700    1.6100    5.0970   C 0  0  0  0  0  0  0  0  0  0  0  0
    1.9770    2.7250    5.9670   C 0  0  0  0  0  0  0  0  0  0  0  0
    2.9480    0.3380    5.7000   N 0  0  0  0  0  0  0  0  0  0  0  0
    4.1540   -0.2820    5.3340   O 0  0  0  0  0  0  0  0  0  0  0  0
    2.7210    1.7830    3.9320   O 0  0  0  0  0  0  0  0  0  0  0  0
    1.7490    3.8650    5.1780   O 0  0  0  0  0  0  0  0  0  0  0  0
    0.2310    6.0680    4.8180   O 0  0  0  0  0  0  0  0  0  0  0  0
    0.3060    4.8640    7.2280   O 0  0  0  0  0  0  0  0  0  0  0  0
    2.3180    6.0950    6.2730   O 0  0  0  0  0  0  0  0  0  0  0  0
    1.1870    5.2510    5.8870   P 0  0  0  0  0  0  0  0  0  0  0  0
  1  2  1  0  0  0  0
  1  3  1  0  0  0  0
  1  5  2  0  0  0  0
  2  6  1  0  0  0  0
  3  4  1  0  0  0  0
  6 10  1  0  0  0  0
  7 10  2  0  0  0  0
  8 10  1  0  0  0  0
  9 10  1  0  0  0  0
M  END
>  <InstanceId>
3C52_PGH_A_404

>  <ChemCompId>
PGH

>  <PdbId>
3C52

>  <ChainId>
A

>  <ResidueNumber>
404

>  <InsertionCode>


>  <Model>
1

>  <AltIds>


>  <MissingHeavyAtoms>
0

>  <ObservedFormula>
C2 N O6 P

>  <Name>
PHOSPHOGLYCOLOHYDROXAMIC ACID

>  <SystematicName>
[2-(hydroxyamino)-2-oxo-ethyl] dihydrogen phosphate

>  <Synonyms>


>  <Type>
NON-POLYMER

>  <Formula>
C2 H6 N O6 P

>  <MolecularWeight>
171.046

>  <ModifiedDate>
2011-06-04

>  <Parent>


>  <OneLetterCode>


>  <SubcomponentList>


>  <AmbiguousFlag>
N

>  <InChI>
InChI=1S/C2H6NO6P/c4-2(3-5)1-9-10(6,7)8/h5H,1H2,(H,3,4)(H2,6,7,8)

>  <InChIKey>
BAXHHWZKQZIJID-UHFFFAOYSA-N

>  <SMILES>
C(C(=O)NO)OP(=O)(O)O

$$$$
