1SDU_MK1_B_902
  RCSB PDB08012015563D
Coordinates from PDB:1SDU:B:902 Model:1 without hydrogens
 45 49  0  0  0  0            999 V2000
   22.4900   34.6490   16.2760   N 0  0  0  0  0  0  0  0  0  0  0  0
   21.0860   34.5220   15.6530   C 0  0  0  0  0  0  0  0  0  0  0  0
   20.2080   33.3980   16.2070   C 0  0  0  0  0  0  0  0  0  0  0  0
   18.8930   33.4290   15.5050   C 0  0  0  0  0  0  0  0  0  0  0  0
   18.9020   33.0570   14.3260   O 0  0  0  0  0  0  0  0  0  0  0  0
   17.9050   33.8850   16.2600   N 0  0  0  0  0  0  0  0  0  0  0  0
   16.5340   33.9160   15.8010   C 0  0  0  0  0  0  0  0  0  0  0  0
   15.6670   34.5990   16.9150   C 0  0  0  0  0  0  0  0  0  0  0  0
   16.0650   32.6010   15.6750   C 0  0  0  0  0  0  0  0  0  0  0  0
   16.3710   34.7240   14.6040   C 0  0  0  0  0  0  0  0  0  0  0  0
   21.0370   32.1620   15.8920   N 0  0  0  0  0  0  0  0  0  0  0  0
   22.3960   32.2170   16.4380   C 0  0  0  0  0  0  0  0  0  0  0  0
   23.1200   33.4410   15.9830   C 0  0  0  0  0  0  0  0  0  0  0  0
   20.3530   30.9880   16.4880   C 0  0  0  0  0  0  0  0  0  0  0  0
   20.5500   29.8030   15.5310   C 0  0  0  0  0  0  0  0  0  0  0  0
   20.4910   28.7330   16.4360   O 0  0  0  0  0  0  0  0  0  0  0  0
   19.3540   29.6770   14.5540   C 0  0  0  0  0  0  0  0  0  0  0  0
   19.4510   28.4760   13.5860   C 0  0  0  0  0  0  0  0  0  0  0  0
   18.1360   28.4130   12.7500   C 0  0  0  0  0  0  0  0  0  0  0  0
   18.1380   27.3760   11.6940   C 0  0  0  0  0  0  0  0  0  0  0  0
   18.2960   26.0280   12.0500   C 0  0  0  0  0  0  0  0  0  0  0  0
   18.3000   25.0690   11.0230   C 0  0  0  0  0  0  0  0  0  0  0  0
   18.1340   25.4980    9.7160   C 0  0  0  0  0  0  0  0  0  0  0  0
   17.9710   26.8340    9.3770   C 0  0  0  0  0  0  0  0  0  0  0  0
   17.9860   27.7900   10.3810   C 0  0  0  0  0  0  0  0  0  0  0  0
   20.5790   28.6310   12.5990   C 0  0  0  0  0  0  0  0  0  0  0  0
   20.8840   29.6850   11.9850   O 0  0  0  0  0  0  0  0  0  0  0  0
   21.2060   27.5160   12.3440   N 0  0  0  0  0  0  0  0  0  0  0  0
   22.2100   27.3920   11.3130   C 0  0  0  0  0  0  0  0  0  0  0  0
   22.1360   26.0410   10.6250   C 0  0  0  0  0  0  0  0  0  0  0  0
   22.0140   24.9160   11.5440   O 0  0  0  0  0  0  0  0  0  0  0  0
   23.4720   25.9700    9.8950   C 0  0  0  0  0  0  0  0  0  0  0  0
   24.5050   26.6700   10.7540   C 0  0  0  0  0  0  0  0  0  0  0  0
   25.8520   26.6850   10.9310   C 0  0  0  0  0  0  0  0  0  0  0  0
   26.4610   27.5260   11.8580   C 0  0  0  0  0  0  0  0  0  0  0  0
   25.7300   28.4010   12.6500   C 0  0  0  0  0  0  0  0  0  0  0  0
   24.3670   28.4300   12.4870   C 0  0  0  0  0  0  0  0  0  0  0  0
   23.6800   27.6230   11.6250   C 0  0  0  0  0  0  0  0  0  0  0  0
   23.1300   35.8060   15.6500   C 0  0  0  0  0  0  0  0  0  0  0  0
   22.5830   37.1560   16.0470   C 0  0  0  0  0  0  0  0  0  0  0  0
   22.5090   37.5080   17.3970   C 0  0  0  0  0  0  0  0  0  0  0  0
   21.9640   38.7480   17.7810   N 0  0  0  0  0  0  0  0  0  0  0  0
   21.5260   39.5520   16.7370   C 0  0  0  0  0  0  0  0  0  0  0  0
   21.5670   39.2460   15.3740   C 0  0  0  0  0  0  0  0  0  0  0  0
   22.1180   38.0100   15.0610   C 0  0  0  0  0  0  0  0  0  0  0  0
  1  2  1  0  0  0  0
  1 13  1  0  0  0  0
  1 39  1  0  0  0  0
  2  3  1  0  0  0  0
  3  4  1  0  0  0  0
  3 11  1  0  0  0  0
  4  5  2  0  0  0  0
  4  6  1  0  0  0  0
  6  7  1  0  0  0  0
  7  8  1  0  0  0  0
  7  9  1  0  0  0  0
  7 10  1  0  0  0  0
 11 12  1  0  0  0  0
 11 14  1  0  0  0  0
 12 13  1  0  0  0  0
 14 15  1  0  0  0  0
 15 16  1  0  0  0  0
 15 17  1  0  0  0  0
 17 18  1  0  0  0  0
 18 19  1  0  0  0  0
 18 26  1  0  0  0  0
 19 20  1  0  0  0  0
 20 21  2  0  0  0  0
 20 25  1  0  0  0  0
 21 22  1  0  0  0  0
 22 23  2  0  0  0  0
 23 24  1  0  0  0  0
 24 25  2  0  0  0  0
 26 27  2  0  0  0  0
 26 28  1  0  0  0  0
 28 29  1  0  0  0  0
 29 30  1  0  0  0  0
 29 38  1  0  0  0  0
 30 31  1  0  0  0  0
 30 32  1  0  0  0  0
 32 33  1  0  0  0  0
 33 34  2  0  0  0  0
 33 38  1  0  0  0  0
 34 35  1  0  0  0  0
 35 36  2  0  0  0  0
 36 37  1  0  0  0  0
 37 38  2  0  0  0  0
 39 40  1  0  0  0  0
 40 41  1  0  0  0  0
 40 45  2  0  0  0  0
 41 42  2  0  0  0  0
 42 43  1  0  0  0  0
 43 44  2  0  0  0  0
 44 45  1  0  0  0  0
M  END
>  <InstanceId>
1SDU_MK1_B_902

>  <ChemCompId>
MK1

>  <PdbId>
1SDU

>  <ChainId>
B

>  <ResidueNumber>
902

>  <InsertionCode>


>  <Model>
1

>  <AltIds>


>  <MissingHeavyAtoms>
0

>  <ObservedFormula>
C36 N5 O4

>  <Name>
N-[2(R)-HYDROXY-1(S)-INDANYL]-5-[(2(S)-TERTIARY BUTYLAMINOCARBONYL)-4(3-PYRIDYLMETHYL)PIPERAZINO]-4(S)-HYDROXY-2(R)-PHENYLMETHYLPENTANAMIDE

>  <SystematicName>
(1S,2S,4R)-N-tert-butyl-1-[(2S,4R)-2-hydroxy-5-[[(1S,2R)-2-hydroxy-2,3-dihydro-1H-inden-1-yl]amino]-5-oxo-4-(phenylmethyl)pentyl]-4-(pyridin-3-ylmethyl)piperazine-2-carboxamide

>  <Synonyms>
INDINAVIR

>  <Type>
NON-POLYMER

>  <Formula>
C36 H47 N5 O4

>  <MolecularWeight>
613.789

>  <ModifiedDate>
2020-06-17

>  <Parent>


>  <OneLetterCode>


>  <SubcomponentList>


>  <AmbiguousFlag>
N

>  <InChI>
InChI=1S/C36H47N5O4/c1-36(2,3)39-35(45)31-24-40(22-26-12-9-15-37-21-26)16-17-41(31)23-29(42)19-28(18-25-10-5-4-6-11-25)34(44)38-33-30-14-8-7-13-27(30)20-32(33)43/h4-15,21,28-29,31-33,42-43H,16-20,22-24H2,1-3H3,(H,38,44)(H,39,45)/t28-,29+,31+,32-,33+/m1/s1

>  <InChIKey>
CBVCZFGXHXORBI-PXQQMZJSSA-N

>  <SMILES>
CC(C)(C)NC(=O)[C@@H]1C[N@@](CC[N@]1C[C@H](C[C@@H](Cc2ccccc2)C(=O)N[C@H]3c4ccccc4C[C@H]3O)O)Cc5cccnc5

$$$$
