6G39_5ID_A_802
  RCSB PDB08022004453D
Coordinates from PDB:6G39:A:802 Model:1 without hydrogens
 20 22  0  0  0  0            999 V2000
   65.3740   31.1140    9.9870   O 0  0  0  0  0  0  0  0  0  0  0  0
   64.3600   31.9080   10.5990   C 0  0  0  0  0  0  0  0  0  0  0  0
   64.1300   31.5120   12.0390   C 0  0  0  0  0  0  0  0  0  0  0  0
   63.9350   30.0860   12.1090   O 0  0  0  0  0  0  0  0  0  0  0  0
   64.5540   29.5590   13.2670   C 0  0  0  0  0  0  0  0  0  0  0  0
   65.6160   28.6470   12.8630   N 0  0  0  0  0  0  0  0  0  0  0  0
   66.2670   28.6300   11.6500   C 0  0  0  0  0  0  0  0  0  0  0  0
   67.2050   27.6370   11.6600   C 0  0  0  0  0  0  0  0  0  0  0  0
   67.1650   26.9990   12.9300   C 0  0  0  0  0  0  0  0  0  0  0  0
   67.8440   25.9530   13.6030   C 0  0  0  0  0  0  0  0  0  0  0  0
   67.4720   25.6420   14.8650   N 0  0  0  0  0  0  0  0  0  0  0  0
   66.4910   26.3500   15.4250   C 0  0  0  0  0  0  0  0  0  0  0  0
   65.7920   27.3620   14.9080   N 0  0  0  0  0  0  0  0  0  0  0  0
   66.1530   27.6600   13.6520   C 0  0  0  0  0  0  0  0  0  0  0  0
   68.8580   25.2800   13.0610   N 0  0  0  0  0  0  0  0  0  0  0  0
   65.0550   30.7420   14.0860   C 0  0  0  0  0  0  0  0  0  0  0  0
   64.0510   31.1300   15.0120   O 0  0  0  0  0  0  0  0  0  0  0  0
   65.2860   31.7850   12.9960   C 0  0  0  0  0  0  0  0  0  0  0  0
   65.2680   33.1100   13.5280   O 0  0  0  0  0  0  0  0  0  0  0  0
   68.4460   27.0810   10.0630   I 0  0  0  0  0  0  0  0  0  0  0  0
  1  2  1  0  0  0  0
  2  3  1  0  0  0  0
  3  4  1  0  0  0  0
  3 18  1  0  0  0  0
  4  5  1  0  0  0  0
  5  6  1  0  0  0  0
  5 16  1  0  0  0  0
  6  7  1  0  0  0  0
  6 14  1  0  0  0  0
  7  8  2  0  0  0  0
  8  9  1  0  0  0  0
  8 20  1  0  0  0  0
  9 10  2  0  0  0  0
  9 14  1  0  0  0  0
 10 11  1  0  0  0  0
 10 15  1  0  0  0  0
 11 12  2  0  0  0  0
 12 13  1  0  0  0  0
 13 14  2  0  0  0  0
 16 17  1  0  0  0  0
 16 18  1  0  0  0  0
 18 19  1  0  0  0  0
M  END
>  <InstanceId>
6G39_5ID_A_802

>  <ChemCompId>
5ID

>  <PdbId>
6G39

>  <ChainId>
A

>  <ResidueNumber>
802

>  <InsertionCode>


>  <Model>
1

>  <AltIds>


>  <MissingHeavyAtoms>
0

>  <ObservedFormula>
C11 N4 O4 I

>  <Name>
(2R,3R,4S,5R)-2-(4-AMINO-5-IODO-7H-PYRROLO[2,3-D]PYRIMIDIN-7-YL)-5-(HYDROXYMETHYL)TETRAHYDROFURAN-3,4-DIOL

>  <SystematicName>
(2R,3R,4S,5R)-2-(4-amino-5-iodo-pyrrolo[2,3-d]pyrimidin-7-yl)-5-(hydroxymethyl)oxolane-3,4-diol

>  <Synonyms>
5-IODOTUBERCIDIN

>  <Type>
NON-POLYMER

>  <Formula>
C11 H13 I N4 O4

>  <MolecularWeight>
392.15

>  <ModifiedDate>
2020-06-17

>  <Parent>


>  <OneLetterCode>


>  <SubcomponentList>


>  <AmbiguousFlag>
N

>  <InChI>
InChI=1S/C11H13IN4O4/c12-4-1-16(10-6(4)9(13)14-3-15-10)11-8(19)7(18)5(2-17)20-11/h1,3,5,7-8,11,17-19H,2H2,(H2,13,14,15)/t5-,7-,8-,11-/m1/s1

>  <InChIKey>
WHSIXKUPQCKWBY-IOSLPCCCSA-N

>  <SMILES>
c1c(c2c(ncnc2n1[C@H]3[C@@H]([C@@H]([C@H](O3)CO)O)O)N)I

$$$$
