1UTM_PEA_A_246
  RCSB PDB08012016063D
Coordinates from PDB:1UTM:A:246 Model:1 without hydrogens
  9  9  0  0  0  0            999 V2000
   93.9350   77.8830  -16.7310   C 0  0  0  0  0  0  0  0  0  0  0  0
   94.8120   78.2330  -17.7540   C 0  0  0  0  0  0  0  0  0  0  0  0
   94.6460   77.7290  -19.0430   C 0  0  0  0  0  0  0  0  0  0  0  0
   93.5850   76.8640  -19.3160   C 0  0  0  0  0  0  0  0  0  0  0  0
   92.7040   76.5110  -18.3000   C 0  0  0  0  0  0  0  0  0  0  0  0
   92.8830   77.0210  -17.0150   C 0  0  0  0  0  0  0  0  0  0  0  0
   94.1270   78.4200  -15.3370   C 0  0  0  0  0  0  0  0  0  0  0  0
   94.6600   79.8400  -15.2930   C 0  0  0  0  0  0  0  0  0  0  0  0
   94.8930   80.2770  -13.8970   N 0  3  0  0  0  0  0  0  0  0  0  0
  1  2  2  0  0  0  0
  1  6  1  0  0  0  0
  1  7  1  0  0  0  0
  2  3  1  0  0  0  0
  3  4  2  0  0  0  0
  4  5  1  0  0  0  0
  5  6  2  0  0  0  0
  7  8  1  0  0  0  0
  8  9  1  0  0  0  0
M  CHG  1   9   1
M  END
>  <InstanceId>
1UTM_PEA_A_246

>  <ChemCompId>
PEA

>  <PdbId>
1UTM

>  <ChainId>
A

>  <ResidueNumber>
246

>  <InsertionCode>


>  <Model>
1

>  <AltIds>


>  <MissingHeavyAtoms>
0

>  <ObservedFormula>
C8 N

>  <Name>
2-PHENYLETHYLAMINE

>  <SystematicName>
phenethylazanium

>  <Synonyms>


>  <Type>
NON-POLYMER

>  <Formula>
C8 H12 N

>  <MolecularWeight>
122.188

>  <ModifiedDate>
2011-06-04

>  <Parent>


>  <OneLetterCode>


>  <SubcomponentList>


>  <AmbiguousFlag>
N

>  <InChI>
InChI=1S/C8H11N/c9-7-6-8-4-2-1-3-5-8/h1-5H,6-7,9H2/p+1

>  <InChIKey>
BHHGXPLMPWCGHP-UHFFFAOYSA-O

>  <SMILES>
c1ccc(cc1)CC[NH3+]

$$$$
