5NXO_9HK_A_302
  RCSB PDB08022002363D
Coordinates from PDB:5NXO:A:302 Model:1 without hydrogens
 20 21  0  0  0  0            999 V2000
   -3.0750    8.8730   14.8010   C 0  0  0  0  0  0  0  0  0  0  0  0
   -2.0380    9.7580   15.0470   C 0  0  0  0  0  0  0  0  0  0  0  0
   -1.0360    9.9470   14.1000   C 0  0  0  0  0  0  0  0  0  0  0  0
   -0.0390   10.8060   14.3530   N 0  3  0  0  0  0  0  0  0  0  0  0
   -0.1460   11.5910   15.3980   O 0  0  0  0  0  0  0  0  0  0  0  0
    0.9660   10.8860   13.4730   O 0  5  0  0  0  0  0  0  0  0  0  0
   -1.0690    9.1960   12.9270   C 0  0  0  0  0  0  0  0  0  0  0  0
   -2.1290    8.3230   12.6820   C 0  0  0  0  0  0  0  0  0  0  0  0
   -3.1370    8.1450   13.6270   C 0  0  0  0  0  0  0  0  0  0  0  0
   -4.2730    7.3120   13.3540   C 0  0  0  0  0  0  0  0  0  0  0  0
   -4.6520    6.2510   14.2520   C 0  0  0  0  0  0  0  0  0  0  0  0
   -5.9800    6.1260   14.6560   C 0  0  0  0  0  0  0  0  0  0  0  0
   -6.3920    5.0650   15.4530   C 0  0  0  0  0  0  0  0  0  0  0  0
   -5.4720    4.0780   15.8350   C 0  0  0  0  0  0  0  0  0  0  0  0
   -6.0670    2.6720   16.7820   S 0  0  0  0  0  0  0  0  0  0  0  0
   -5.4800    2.8250   18.1430   O 0  0  0  0  0  0  0  0  0  0  0  0
   -7.5250    2.7110   16.6980   O 0  0  0  0  0  0  0  0  0  0  0  0
   -5.4990    1.3840   16.0690   N 0  0  0  0  0  0  0  0  0  0  0  0
   -4.1210    4.1820   15.4710   C 0  0  0  0  0  0  0  0  0  0  0  0
   -3.7440    5.2720   14.6760   C 0  0  0  0  0  0  0  0  0  0  0  0
  8  7  2  0  0  0  0
  8  9  1  0  0  0  0
  7  3  1  0  0  0  0
 10  9  1  0  0  0  0
 10 11  1  0  0  0  0
  6  4  1  0  0  0  0
  9  1  2  0  0  0  0
  3  4  1  0  0  0  0
  3  2  2  0  0  0  0
 11 12  2  0  0  0  0
 11 20  1  0  0  0  0
  4  5  2  0  0  0  0
 12 13  1  0  0  0  0
 20 19  2  0  0  0  0
  1  2  1  0  0  0  0
 13 14  2  0  0  0  0
 19 14  1  0  0  0  0
 14 15  1  0  0  0  0
 18 15  1  0  0  0  0
 17 15  2  0  0  0  0
 15 16  2  0  0  0  0
M  CHG  2   4   1   6  -1
M  END
>  <InstanceId>
5NXO_9HK_A_302

>  <ChemCompId>
9HK

>  <PdbId>
5NXO

>  <ChainId>
A

>  <ResidueNumber>
302

>  <InsertionCode>


>  <Model>
1

>  <AltIds>


>  <MissingHeavyAtoms>
0

>  <ObservedFormula>
C13 N2 O4 S

>  <Name>
4-[(4-nitrophenyl)methyl]benzenesulfonamide

>  <SystematicName>
4-[(4-nitrophenyl)methyl]benzenesulfonamide

>  <Synonyms>


>  <Type>
NON-POLYMER

>  <Formula>
C13 H12 N2 O4 S

>  <MolecularWeight>
292.31

>  <ModifiedDate>
2018-01-12

>  <Parent>


>  <OneLetterCode>


>  <SubcomponentList>


>  <AmbiguousFlag>
N

>  <InChI>
InChI=1S/C13H12N2O4S/c14-20(18,19)13-7-3-11(4-8-13)9-10-1-5-12(6-2-10)15(16)17/h1-8H,9H2,(H2,14,18,19)

>  <InChIKey>
BTYDYHYETOUTRB-UHFFFAOYSA-N

>  <SMILES>
c1cc(ccc1Cc2ccc(cc2)S(=O)(=O)N)[N+](=O)[O-]

$$$$
