1V2W_ANH_T_800
  RCSB PDB08012016083D
Coordinates from PDB:1V2W:T:800 Model:1 without hydrogens
 30 31  0  0  0  0            999 V2000
   -2.2300   19.0600   17.5820   N 0  0  0  0  0  0  0  0  0  0  0  0
   -3.4070   18.3790   18.1940   C 0  0  0  0  0  0  0  0  0  0  0  0
   -2.9030   17.3950   19.2540   C 0  0  0  0  0  0  0  0  0  0  0  0
   -4.5280   19.3290   18.8380   C 0  0  0  0  0  0  0  0  0  0  0  0
   -5.7260   19.1350   18.5120   O 0  0  0  0  0  0  0  0  0  0  0  0
   -4.1320   20.3700   19.7610   O 0  0  0  0  0  0  0  0  0  0  0  0
   -2.7570   20.6800   20.2080   C 0  0  0  0  0  0  0  0  0  0  0  0
   -2.1280   16.1710   18.7720   C 0  0  0  0  0  0  0  0  0  0  0  0
   -1.0760   15.6750   19.5830   C 0  0  0  0  0  0  0  0  0  0  0  0
   -0.3200   14.5390   19.1890   C 0  0  0  0  0  0  0  0  0  0  0  0
   -0.6200   13.8860   17.9650   C 0  0  0  0  0  0  0  0  0  0  0  0
   -1.6940   14.3480   17.0800   C 0  0  0  0  0  0  0  0  0  0  0  0
   -2.4400   15.5120   17.5220   C 0  0  0  0  0  0  0  0  0  0  0  0
   -1.9750   13.6840   15.8740   C 0  0  0  0  0  0  0  0  0  0  0  0
   -2.6570   14.1910   14.8700   N 0  0  0  0  0  0  0  0  0  0  0  0
   -1.5940   12.4440   15.5960   N 0  0  0  0  0  0  0  0  0  0  0  0
   -2.2880   19.9770   16.6060   C 0  0  0  0  0  0  0  0  0  0  0  0
   -1.0030   20.7140   16.2760   C 0  0  0  0  0  0  0  0  0  0  0  0
   -0.9320   21.2560   14.8920   N 0  0  0  0  0  0  0  0  0  0  0  0
   -3.3110   20.2340   15.9770   O 0  0  0  0  0  0  0  0  0  0  0  0
    2.9430   25.4260   18.6360   C 0  0  0  0  0  0  0  0  0  0  0  0
    2.0660   24.7860   17.6200   C 0  0  0  0  0  0  0  0  0  0  0  0
    2.5960   23.9820   16.5510   C 0  0  0  0  0  0  0  0  0  0  0  0
    1.7010   23.3830   15.5960   C 0  0  0  0  0  0  0  0  0  0  0  0
    0.2840   23.6190   15.7510   C 0  0  0  0  0  0  0  0  0  0  0  0
   -0.2270   24.4190   16.8130   C 0  0  0  0  0  0  0  0  0  0  0  0
    0.6630   24.9930   17.7360   C 0  0  0  0  0  0  0  0  0  0  0  0
   -0.8860   22.9300   14.6560   S 0  0  0  0  0  0  0  0  0  0  0  0
   -0.5540   23.1530   13.1090   O 0  0  0  0  0  0  0  0  0  0  0  0
   -2.3250   23.3780   15.1000   O 0  0  0  0  0  0  0  0  0  0  0  0
  1  2  1  0  0  0  0
  1 17  1  0  0  0  0
  2  3  1  0  0  0  0
  2  4  1  0  0  0  0
  3  8  1  0  0  0  0
  4  5  2  0  0  0  0
  4  6  1  0  0  0  0
  6  7  1  0  0  0  0
  8  9  2  0  0  0  0
  8 13  1  0  0  0  0
  9 10  1  0  0  0  0
 10 11  2  0  0  0  0
 11 12  1  0  0  0  0
 12 13  2  0  0  0  0
 12 14  1  0  0  0  0
 14 15  1  0  0  0  0
 14 16  2  0  0  0  0
 17 18  1  0  0  0  0
 17 20  2  0  0  0  0
 18 19  1  0  0  0  0
 19 28  1  0  0  0  0
 21 22  1  0  0  0  0
 22 23  1  0  0  0  0
 22 27  2  0  0  0  0
 23 24  2  0  0  0  0
 24 25  1  0  0  0  0
 25 26  2  0  0  0  0
 25 28  1  0  0  0  0
 26 27  1  0  0  0  0
 28 29  2  0  0  0  0
 28 30  2  0  0  0  0
M  END
>  <InstanceId>
1V2W_ANH_T_800

>  <ChemCompId>
ANH

>  <PdbId>
1V2W

>  <ChainId>
T

>  <ResidueNumber>
800

>  <InsertionCode>


>  <Model>
1

>  <AltIds>


>  <MissingHeavyAtoms>
0

>  <ObservedFormula>
C20 N4 O5 S

>  <Name>
METHYL N-[(4-METHYLPHENYL)SULFONYL]GLYCYL-3-[AMINO(IMINO)METHYL]-D-PHENYLALANINATE

>  <SystematicName>
methyl (2S)-3-(3-carbamimidoylphenyl)-2-[2-[(4-methylphenyl)sulfonylamino]ethanoylamino]propanoate

>  <Synonyms>
NALPHA-(2-NAPHTHYLSULFONYLGLYCYL)-3-AMIDINO-D,L-PHENYLALANINE-ISOPROPYLESTER

>  <Type>
NON-POLYMER

>  <Formula>
C20 H24 N4 O5 S

>  <MolecularWeight>
432.493

>  <ModifiedDate>
2011-06-04

>  <Parent>


>  <OneLetterCode>


>  <SubcomponentList>


>  <AmbiguousFlag>
N

>  <InChI>
InChI=1S/C20H24N4O5S/c1-13-6-8-16(9-7-13)30(27,28)23-12-18(25)24-17(20(26)29-2)11-14-4-3-5-15(10-14)19(21)22/h3-10,17,23H,11-12H2,1-2H3,(H3,21,22)(H,24,25)/t17-/m0/s1

>  <InChIKey>
YAEIKQDHLCFGAA-KRWDZBQOSA-N

>  <SMILES>
Cc1ccc(cc1)S(=O)(=O)NCC(=O)N[C@@H](Cc2cccc(c2)C(=N)N)C(=O)OC

$$$$
