5XVA_8FU_A_601
  RCSB PDB08022003403D
Coordinates from PDB:5XVA:A:601 Model:1 without hydrogens
 27 30  0  0  0  0            999 V2000
   -6.9720  -12.2070   18.9590   C 0  0  0  0  0  0  0  0  0  0  0  0
   -7.0290  -13.6030   18.5490   C 0  0  0  0  0  0  0  0  0  0  0  0
   -6.2570  -14.0590   17.4110   C 0  0  0  0  0  0  0  0  0  0  0  0
   -5.4450  -13.1660   16.7230   N 0  0  0  0  0  0  0  0  0  0  0  0
   -6.2110  -11.3730   18.2990   N 0  0  0  0  0  0  0  0  0  0  0  0
   -5.4150  -11.8650   17.1460   C 0  0  0  0  0  0  0  0  0  0  0  0
   -7.8330  -14.4560   19.2290   C 0  0  0  0  0  0  0  0  0  0  0  0
   -7.8720  -15.8830   18.7700   C 0  0  0  0  0  0  0  0  0  0  0  0
   -7.1650  -16.3110   17.7490   C 0  0  0  0  0  0  0  0  0  0  0  0
   -6.2880  -15.3640   16.9960   C 0  0  0  0  0  0  0  0  0  0  0  0
   -7.6120  -10.4540   20.6260   C 0  0  0  0  0  0  0  0  0  0  0  0
   -6.9190   -9.3070   20.1640   C 0  0  0  0  0  0  0  0  0  0  0  0
   -7.1470   -8.3040   21.0860   C 0  0  0  0  0  0  0  0  0  0  0  0
   -6.6270   -6.8580   21.0700   C 0  0  0  0  0  0  0  0  0  0  0  0
   -4.5330  -10.8530   16.4570   C 0  0  0  0  0  0  0  0  0  0  0  0
   -4.2030   -8.8470   15.0910   C 0  0  0  0  0  0  0  0  0  0  0  0
   -4.7850   -7.4310   15.1570   C 0  0  0  0  0  0  0  0  0  0  0  0
   -6.9700   -8.2280   15.5410   C 0  0  0  0  0  0  0  0  0  0  0  0
   -6.5630   -9.6860   15.5520   C 0  0  0  0  0  0  0  0  0  0  0  0
   -3.9400   -6.5480   14.3030   C 0  0  0  0  0  0  0  0  0  0  0  0
   -7.7380  -11.7690   20.0650   N 0  0  0  0  0  0  0  0  0  0  0  0
   -7.9540   -8.8200   22.0870   N 0  0  0  0  0  0  0  0  0  0  0  0
   -8.2340  -10.1400   21.7960   N 0  0  0  0  0  0  0  0  0  0  0  0
   -5.1250   -9.7900   15.6990   N 0  0  0  0  0  0  0  0  0  0  0  0
   -6.1250   -7.4840   14.6540   N 0  0  0  0  0  0  0  0  0  0  0  0
   -3.3280  -10.9350   16.5970   O 0  0  0  0  0  0  0  0  0  0  0  0
   -8.8770  -16.9970   19.6250  Cl 0  0  0  0  0  0  0  0  0  0  0  0
 20 17  1  0  0  0  0
 25 17  1  0  0  0  0
 25 18  1  0  0  0  0
 16 17  1  0  0  0  0
 16 24  1  0  0  0  0
 18 19  1  0  0  0  0
 19 24  1  0  0  0  0
 24 15  1  0  0  0  0
 15 26  2  0  0  0  0
 15  6  1  0  0  0  0
  4  6  2  0  0  0  0
  4  3  1  0  0  0  0
 10  3  2  0  0  0  0
 10  9  1  0  0  0  0
  6  5  1  0  0  0  0
  3  2  1  0  0  0  0
  9  8  2  0  0  0  0
  5  1  2  0  0  0  0
  2  1  1  0  0  0  0
  2  7  2  0  0  0  0
  8  7  1  0  0  0  0
  8 27  1  0  0  0  0
  1 21  1  0  0  0  0
 21 11  1  0  0  0  0
 12 11  1  0  0  0  0
 12 13  2  0  0  0  0
 11 23  2  0  0  0  0
 14 13  1  0  0  0  0
 13 22  1  0  0  0  0
 23 22  1  0  0  0  0
M  END
>  <InstanceId>
5XVA_8FU_A_601

>  <ChemCompId>
8FU

>  <PdbId>
5XVA

>  <ChainId>
A

>  <ResidueNumber>
601

>  <InsertionCode>


>  <Model>
1

>  <AltIds>


>  <MissingHeavyAtoms>
0

>  <ObservedFormula>
C18 N7 O Cl

>  <Name>
[6-chloranyl-4-[(5-methyl-1H-pyrazol-3-yl)amino]quinazolin-2-yl]-[(3R)-3-methylpiperazin-1-yl]methanone

>  <SystematicName>
[6-chloranyl-4-[(5-methyl-1~{H}-pyrazol-3-yl)amino]quinazolin-2-yl]-[(3~{R})-3-methylpiperazin-1-yl]methanone

>  <Synonyms>


>  <Type>
NON-POLYMER

>  <Formula>
C18 H20 Cl N7 O

>  <MolecularWeight>
385.851

>  <ModifiedDate>
2018-02-02

>  <Parent>


>  <OneLetterCode>


>  <SubcomponentList>


>  <AmbiguousFlag>
N

>  <InChI>
InChI=1S/C18H20ClN7O/c1-10-7-15(25-24-10)22-16-13-8-12(19)3-4-14(13)21-17(23-16)18(27)26-6-5-20-11(2)9-26/h3-4,7-8,11,20H,5-6,9H2,1-2H3,(H2,21,22,23,24,25)/t11-/m1/s1

>  <InChIKey>
WQTMYTFWTYPJST-LLVKDONJSA-N

>  <SMILES>
Cc1cc(n[nH]1)Nc2c3cc(ccc3nc(n2)C(=O)N4CCN[C@@H](C4)C)Cl

$$$$
