5AD1_8LC_A_500
  RCSB PDB08022000453D
Coordinates from PDB:5AD1:A:500 Model:1 without hydrogens
 30 31  0  0  0  0            999 V2000
  -21.8960   12.8960  -25.0500   C 0  0  0  0  0  0  0  0  0  0  0  0
  -22.2130   12.5800  -26.3830   C 0  0  0  0  0  0  0  0  0  0  0  0
  -22.5100   11.2290  -26.6790   C 0  0  0  0  0  0  0  0  0  0  0  0
  -22.4080   10.2440  -25.7360   C 0  0  0  0  0  0  0  0  0  0  0  0
  -22.1090   10.5570  -24.4240   C 0  0  0  0  0  0  0  0  0  0  0  0
  -21.8410   11.8590  -24.0850   C 0  0  0  0  0  0  0  0  0  0  0  0
  -22.2970   13.5900  -27.4780   C 0  0  0  0  0  0  0  0  0  0  0  0
  -22.5360   13.2960  -28.6640   O 0  0  0  0  0  0  0  0  0  0  0  0
  -22.1140   14.8610  -27.1030   N 0  0  0  0  0  0  0  0  0  0  0  0
  -22.1580   15.9730  -28.0280   C 0  0  0  0  0  0  0  0  0  0  0  0
  -22.3900   17.3020  -27.2950   C 0  0  0  0  0  0  0  0  0  0  0  0
  -22.2110   18.4550  -28.2010   C 0  0  0  0  0  0  0  0  0  0  0  0
  -22.6690   19.8110  -27.6580   C 0  0  0  0  0  0  0  0  0  0  0  0
  -22.1360   20.1510  -26.2490   C 0  0  0  0  0  0  0  0  0  0  0  0
  -20.6300   20.0920  -26.2140   C 0  0  0  0  0  0  0  0  0  0  0  0
  -20.0230   20.7920  -24.9580   C 0  0  0  0  0  0  0  0  0  0  0  0
  -20.4210   20.0610  -23.6690   C 0  0  0  0  0  0  0  0  0  0  0  0
  -19.7560   18.7950  -23.5140   N 0  0  0  0  0  0  0  0  0  0  0  0
  -18.5010   18.6670  -23.0390   C 0  0  0  0  0  0  0  0  0  0  0  0
  -18.0080   17.2760  -22.8090   C 0  0  0  0  0  0  0  0  0  0  0  0
  -18.8080   16.1120  -22.8330   C 0  0  0  0  0  0  0  0  0  0  0  0
  -18.2660   14.8330  -22.7530   C 0  0  0  0  0  0  0  0  0  0  0  0
  -16.8690   14.6990  -22.5450   C 0  0  0  0  0  0  0  0  0  0  0  0
  -16.0900   15.8520  -22.4740   C 0  0  0  0  0  0  0  0  0  0  0  0
  -16.6290   17.1230  -22.6320   C 0  0  0  0  0  0  0  0  0  0  0  0
  -17.7570   19.6550  -22.8390   O 0  0  0  0  0  0  0  0  0  0  0  0
  -21.5830   12.2580  -22.8090   O 0  0  0  0  0  0  0  0  0  0  0  0
  -20.1500   16.2120  -22.9520   O 0  0  0  0  0  0  0  0  0  0  0  0
  -19.0630   13.7490  -22.8690   O 0  0  0  0  0  0  0  0  0  0  0  0
  -21.6060   14.1520  -24.6240   O 0  0  0  0  0  0  0  0  0  0  0  0
  1  2  1  0  0  0  0
  1  6  2  0  0  0  0
  1 30  1  0  0  0  0
  2  3  2  0  0  0  0
  2  7  1  0  0  0  0
  3  4  1  0  0  0  0
  4  5  2  0  0  0  0
  5  6  1  0  0  0  0
  6 27  1  0  0  0  0
  7  8  2  0  0  0  0
  7  9  1  0  0  0  0
  9 10  1  0  0  0  0
 10 11  1  0  0  0  0
 11 12  1  0  0  0  0
 12 13  1  0  0  0  0
 13 14  1  0  0  0  0
 14 15  1  0  0  0  0
 15 16  1  0  0  0  0
 16 17  1  0  0  0  0
 17 18  1  0  0  0  0
 18 19  1  0  0  0  0
 19 20  1  0  0  0  0
 19 26  2  0  0  0  0
 20 21  1  0  0  0  0
 20 25  2  0  0  0  0
 21 22  2  0  0  0  0
 21 28  1  0  0  0  0
 22 23  1  0  0  0  0
 22 29  1  0  0  0  0
 23 24  2  0  0  0  0
 24 25  1  0  0  0  0
M  END
>  <InstanceId>
5AD1_8LC_A_500

>  <ChemCompId>
8LC

>  <PdbId>
5AD1

>  <ChainId>
A

>  <ResidueNumber>
500

>  <InsertionCode>


>  <Model>
1

>  <AltIds>


>  <MissingHeavyAtoms>
0

>  <ObservedFormula>
C22 N2 O6

>  <Name>
N,N'-OCTANE-1,8-DIYLBIS(2,3-DIHYDROXYBENZAMIDE)

>  <SystematicName>
N-[8-[[2,3-bis(oxidanyl)phenyl]carbonylamino]octyl]-2,3-bis(oxidanyl)benzamide

>  <Synonyms>


>  <Type>
non-polymer

>  <Formula>
C22 H28 N2 O6

>  <MolecularWeight>
416.468

>  <ModifiedDate>
2016-09-23

>  <Parent>


>  <OneLetterCode>


>  <SubcomponentList>


>  <AmbiguousFlag>
N

>  <InChI>
InChI=1S/C22H28N2O6/c25-17-11-7-9-15(19(17)27)21(29)23-13-5-3-1-2-4-6-14-24-22(30)16-10-8-12-18(26)20(16)28/h7-12,25-28H,1-6,13-14H2,(H,23,29)(H,24,30)

>  <InChIKey>
DREKRZFIOMALFJ-UHFFFAOYSA-N

>  <SMILES>
c1cc(c(c(c1)O)O)C(=O)NCCCCCCCCNC(=O)c2cccc(c2O)O

$$$$
