3U81_SAH_A_222
  RCSB PDB08012020393D
Coordinates from PDB:3U81:A:222 Model:1 without hydrogens
 26 28  0  0  0  0            999 V2000
  -10.4680  -11.2790   15.7000   N 0  0  0  0  0  0  0  0  0  0  0  0
  -11.0360  -10.3730   14.6820   C 0  0  0  0  0  0  0  0  0  0  0  0
  -12.3690   -9.7400   15.1090   C 0  0  0  0  0  0  0  0  0  0  0  0
  -13.4020  -10.7470   15.5390   C 0  0  0  0  0  0  0  0  0  0  0  0
  -14.9850   -9.9040   15.7020   S 0  0  0  0  0  0  0  0  0  0  0  0
  -10.0190   -9.2890   14.3760   C 0  0  0  0  0  0  0  0  0  0  0  0
   -9.1370   -9.0000   15.1970   O 0  0  0  0  0  0  0  0  0  0  0  0
  -10.1590   -8.7140   13.2960   O 0  0  0  0  0  0  0  0  0  0  0  0
  -15.9120  -11.1900   16.5110   C 0  0  0  0  0  0  0  0  0  0  0  0
  -16.2530  -12.3740   15.5940   C 0  0  0  0  0  0  0  0  0  0  0  0
  -16.6740  -13.4540   16.4250   O 0  0  0  0  0  0  0  0  0  0  0  0
  -17.3410  -12.1260   14.5500   C 0  0  0  0  0  0  0  0  0  0  0  0
  -16.9300  -12.3690   13.2170   O 0  0  0  0  0  0  0  0  0  0  0  0
  -18.4430  -13.1170   15.0210   C 0  0  0  0  0  0  0  0  0  0  0  0
  -19.2770  -13.6460   13.9760   O 0  0  0  0  0  0  0  0  0  0  0  0
  -17.6590  -14.1940   15.7210   C 0  0  0  0  0  0  0  0  0  0  0  0
  -18.4020  -14.9730   16.7120   N 0  0  0  0  0  0  0  0  0  0  0  0
  -19.2800  -14.4600   17.6290   C 0  0  0  0  0  0  0  0  0  0  0  0
  -19.6960  -15.4220   18.4940   N 0  0  0  0  0  0  0  0  0  0  0  0
  -19.0390  -16.5660   18.0760   C 0  0  0  0  0  0  0  0  0  0  0  0
  -19.0320  -17.9020   18.5580   C 0  0  0  0  0  0  0  0  0  0  0  0
  -19.7970  -18.2710   19.6210   N 0  0  0  0  0  0  0  0  0  0  0  0
  -18.2590  -18.7820   17.9360   N 0  0  0  0  0  0  0  0  0  0  0  0
  -17.5390  -18.4040   16.8640   C 0  0  0  0  0  0  0  0  0  0  0  0
  -17.4590  -17.1710   16.3320   N 0  0  0  0  0  0  0  0  0  0  0  0
  -18.2330  -16.2800   16.9540   C 0  0  0  0  0  0  0  0  0  0  0  0
  1  2  1  0  0  0  0
  2  3  1  0  0  0  0
  2  6  1  0  0  0  0
  3  4  1  0  0  0  0
  4  5  1  0  0  0  0
  5  9  1  0  0  0  0
  6  7  2  0  0  0  0
  6  8  1  0  0  0  0
  9 10  1  0  0  0  0
 10 11  1  0  0  0  0
 10 12  1  0  0  0  0
 11 16  1  0  0  0  0
 12 13  1  0  0  0  0
 12 14  1  0  0  0  0
 14 15  1  0  0  0  0
 14 16  1  0  0  0  0
 16 17  1  0  0  0  0
 17 18  1  0  0  0  0
 17 26  1  0  0  0  0
 18 19  2  0  0  0  0
 19 20  1  0  0  0  0
 20 21  1  0  0  0  0
 20 26  2  0  0  0  0
 21 22  1  0  0  0  0
 21 23  2  0  0  0  0
 23 24  1  0  0  0  0
 24 25  2  0  0  0  0
 25 26  1  0  0  0  0
M  END
>  <InstanceId>
3U81_SAH_A_222

>  <ChemCompId>
SAH

>  <PdbId>
3U81

>  <ChainId>
A

>  <ResidueNumber>
222

>  <InsertionCode>


>  <Model>
1

>  <AltIds>


>  <MissingHeavyAtoms>
0

>  <ObservedFormula>
C14 N6 O5 S

>  <Name>
S-ADENOSYL-L-HOMOCYSTEINE

>  <SystematicName>
(2S)-2-amino-4-[[(2S,3S,4R,5R)-5-(6-aminopurin-9-yl)-3,4-dihydroxy-oxolan-2-yl]methylsulfanyl]butanoic acid

>  <Synonyms>


>  <Type>
L-PEPTIDE LINKING

>  <Formula>
C14 H20 N6 O5 S

>  <MolecularWeight>
384.411

>  <ModifiedDate>
2011-06-04

>  <Parent>
CYS

>  <OneLetterCode>
C

>  <SubcomponentList>


>  <AmbiguousFlag>
N

>  <InChI>
InChI=1S/C14H20N6O5S/c15-6(14(23)24)1-2-26-3-7-9(21)10(22)13(25-7)20-5-19-8-11(16)17-4-18-12(8)20/h4-7,9-10,13,21-22H,1-3,15H2,(H,23,24)(H2,16,17,18)/t6-,7+,9+,10+,13+/m0/s1

>  <InChIKey>
ZJUKTBDSGOFHSH-WFMPWKQPSA-N

>  <SMILES>
c1nc(c2c(n1)n(cn2)[C@H]3[C@@H]([C@@H]([C@H](O3)CSCC[C@@H](C(=O)O)N)O)O)N

$$$$
