5CST_CDP_A_304
  RCSB PDB08022001003D
Coordinates from PDB:5CST:A:304 Model:1 without hydrogens
 25 26  0  0  0  0            999 V2000
  -14.4740  -16.5750   11.8300   O 0  0  0  0  0  0  0  0  0  0  0  0
  -14.2120  -15.3610   10.9470   P 0  0  0  0  0  0  0  0  0  0  0  0
  -12.7640  -15.1620   10.7050   O 0  0  0  0  0  0  0  0  0  0  0  0
  -14.8710  -14.0960   11.4610   O 0  0  0  0  0  0  0  0  0  0  0  0
  -14.9150  -15.7730    9.5280   O 0  0  0  0  0  0  0  0  0  0  0  0
  -15.8520  -17.1030    9.2200   P 0  0  0  0  0  0  0  0  0  0  0  0
  -15.1280  -18.4330    9.1780   O 0  0  0  0  0  0  0  0  0  0  0  0
  -17.1090  -17.0290   10.0660   O 0  0  0  0  0  0  0  0  0  0  0  0
  -16.2470  -16.8110    7.6760   O 0  0  0  0  0  0  0  0  0  0  0  0
  -16.7960  -15.5280    7.4970   C 0  0  0  0  0  0  0  0  0  0  0  0
  -17.1180  -15.1660    6.0650   C 0  0  0  0  0  0  0  0  0  0  0  0
  -15.9200  -15.0060    5.3030   O 0  0  0  0  0  0  0  0  0  0  0  0
  -17.9270  -16.2360    5.3510   C 0  0  0  0  0  0  0  0  0  0  0  0
  -19.2890  -16.2620    5.7920   O 0  0  0  0  0  0  0  0  0  0  0  0
  -17.7060  -15.7740    3.9380   C 0  0  0  0  0  0  0  0  0  0  0  0
  -18.5470  -14.6390    3.6480   O 0  0  0  0  0  0  0  0  0  0  0  0
  -16.2290  -15.3360    3.9540   C 0  0  0  0  0  0  0  0  0  0  0  0
  -15.2690  -16.3630    3.4290   N 0  0  0  0  0  0  0  0  0  0  0  0
  -15.0310  -16.4370    2.0320   C 0  0  0  0  0  0  0  0  0  0  0  0
  -15.6220  -15.6970    1.1980   O 0  0  0  0  0  0  0  0  0  0  0  0
  -14.1540  -17.3690    1.5720   N 0  0  0  0  0  0  0  0  0  0  0  0
  -13.5460  -18.2150    2.4080   C 0  0  0  0  0  0  0  0  0  0  0  0
  -12.7090  -19.0710    1.8810   N 0  0  0  0  0  0  0  0  0  0  0  0
  -13.7660  -18.1880    3.7840   C 0  0  0  0  0  0  0  0  0  0  0  0
  -14.6500  -17.2330    4.2610   C 0  0  0  0  0  0  0  0  0  0  0  0
  1  2  1  0  0  0  0
  2  3  2  0  0  0  0
  2  4  1  0  0  0  0
  2  5  1  0  0  0  0
  5  6  1  0  0  0  0
  6  7  2  0  0  0  0
  6  8  1  0  0  0  0
  6  9  1  0  0  0  0
  9 10  1  0  0  0  0
 10 11  1  0  0  0  0
 11 12  1  0  0  0  0
 11 13  1  0  0  0  0
 12 17  1  0  0  0  0
 13 14  1  0  0  0  0
 13 15  1  0  0  0  0
 15 16  1  0  0  0  0
 15 17  1  0  0  0  0
 17 18  1  0  0  0  0
 18 19  1  0  0  0  0
 18 25  1  0  0  0  0
 19 20  2  0  0  0  0
 19 21  1  0  0  0  0
 21 22  2  0  0  0  0
 22 23  1  0  0  0  0
 22 24  1  0  0  0  0
 24 25  2  0  0  0  0
M  END
>  <InstanceId>
5CST_CDP_A_304

>  <ChemCompId>
CDP

>  <PdbId>
5CST

>  <ChainId>
A

>  <ResidueNumber>
304

>  <InsertionCode>


>  <Model>
1

>  <AltIds>


>  <MissingHeavyAtoms>
0

>  <ObservedFormula>
C9 N3 O11 P2

>  <Name>
CYTIDINE-5'-DIPHOSPHATE

>  <SystematicName>
[(2R,3S,4R,5R)-5-(4-amino-2-oxo-pyrimidin-1-yl)-3,4-dihydroxy-oxolan-2-yl]methyl phosphono hydrogen phosphate

>  <Synonyms>


>  <Type>
NON-POLYMER

>  <Formula>
C9 H15 N3 O11 P2

>  <MolecularWeight>
403.176

>  <ModifiedDate>
2011-06-04

>  <Parent>


>  <OneLetterCode>


>  <SubcomponentList>


>  <AmbiguousFlag>
N

>  <InChI>
InChI=1S/C9H15N3O11P2/c10-5-1-2-12(9(15)11-5)8-7(14)6(13)4(22-8)3-21-25(19,20)23-24(16,17)18/h1-2,4,6-8,13-14H,3H2,(H,19,20)(H2,10,11,15)(H2,16,17,18)/t4-,6-,7-,8-/m1/s1

>  <InChIKey>
ZWIADYZPOWUWEW-XVFCMESISA-N

>  <SMILES>
C1=CN(C(=O)N=C1N)[C@H]2[C@@H]([C@@H]([C@H](O2)CO[P@@](=O)(O)OP(=O)(O)O)O)O

$$$$
