6DH7_K13_A_103
  RCSB PDB08022004223D
Coordinates from PDB:6DH7:A:103 Model:1 without hydrogens
 39 42  0  0  0  0            999 V2000
   65.3440   51.7160   12.5970   N 0  0  0  0  0  0  0  0  0  0  0  0
   66.2580   52.3610   13.5010   C 0  0  0  0  0  0  0  0  0  0  0  0
   67.4380   51.6010   14.0740   C 0  0  0  0  0  0  0  0  0  0  0  0
   68.3720   52.3060   15.0180   C 0  0  0  0  0  0  0  0  0  0  0  0
   68.0990   53.7500   15.3930   C 0  0  0  0  0  0  0  0  0  0  0  0
   66.9360   54.5060   14.8300   C 0  0  0  0  0  0  0  0  0  0  0  0
   66.0070   53.7890   13.8810   C 0  0  0  0  0  0  0  0  0  0  0  0
   69.1940   54.6330   16.4810   S 0  0  0  0  0  0  0  0  0  0  0  0
   68.4880   55.7780   17.1050   O 0  0  0  0  0  0  0  0  0  0  0  0
   69.6690   53.7710   17.5560   O 0  0  0  0  0  0  0  0  0  0  0  0
   70.4810   55.1920   15.5390   N 0  0  0  0  0  0  0  0  0  0  0  0
   71.2180   54.1330   14.8870   C 0  0  0  0  0  0  0  0  0  0  0  0
   72.6770   54.5250   14.6640   C 0  0  0  0  0  0  0  0  0  0  0  0
   73.4310   54.4840   15.9940   C 0  0  0  0  0  0  0  0  0  0  0  0
   73.3210   53.5750   13.6520   C 0  0  0  0  0  0  0  0  0  0  0  0
   70.2040   56.4190   14.8070   C 0  0  0  0  0  0  0  0  0  0  0  0
   71.1350   57.5280   15.2850   C 0  0  0  0  0  0  0  0  0  0  0  0
   73.4380   52.1580   14.2090   C 0  0  0  0  0  0  0  0  0  0  0  0
   71.0320   58.6020   14.3960   O 0  0  0  0  0  0  0  0  0  0  0  0
   70.7600   57.9480   16.7000   C 0  0  0  0  0  0  0  0  0  0  0  0
   71.7580   58.8810   17.1340   N 0  0  0  0  0  0  0  0  0  0  0  0
   72.7420   58.5280   18.1080   C 0  0  0  0  0  0  0  0  0  0  0  0
   72.7150   57.4680   18.6740   O 0  0  0  0  0  0  0  0  0  0  0  0
   73.7060   59.5270   18.3020   O 0  0  0  0  0  0  0  0  0  0  0  0
   74.5940   59.4720   19.5000   C 0  0  0  0  0  0  0  0  0  0  0  0
   75.7460   59.9560   19.1830   C 0  0  0  0  0  0  0  0  0  0  0  0
   75.5840   61.5690   19.2930   O 0  0  0  0  0  0  0  0  0  0  0  0
   74.7120   61.7780   20.2260   C 0  0  0  0  0  0  0  0  0  0  0  0
   73.5370   62.6450   19.6920   O 0  0  0  0  0  0  0  0  0  0  0  0
   72.4770   61.8730   19.5910   C 0  0  0  0  0  0  0  0  0  0  0  0
   72.7300   60.6210   20.5660   C 0  0  0  0  0  0  0  0  0  0  0  0
   74.0650   60.4260   20.5930   C 0  0  0  0  0  0  0  0  0  0  0  0
   69.4400   58.7110   16.7280   C 0  0  0  0  0  0  0  0  0  0  0  0
   68.8620   58.2490   19.2710   C 0  0  0  0  0  0  0  0  0  0  0  0
   68.6500   58.7780   20.6790   C 0  0  0  0  0  0  0  0  0  0  0  0
   68.7700   60.2700   20.9590   C 0  0  0  0  0  0  0  0  0  0  0  0
   69.1150   61.2320   19.8360   C 0  0  0  0  0  0  0  0  0  0  0  0
   69.3350   60.7030   18.4300   C 0  0  0  0  0  0  0  0  0  0  0  0
   69.2210   59.2120   18.1490   C 0  0  0  0  0  0  0  0  0  0  0  0
  1  2  1  0  0  0  0
  2  3  2  0  0  0  0
  2  7  1  0  0  0  0
  3  4  1  0  0  0  0
  4  5  2  0  0  0  0
  5  6  1  0  0  0  0
  5  8  1  0  0  0  0
  6  7  2  0  0  0  0
  8  9  2  0  0  0  0
  8 10  2  0  0  0  0
  8 11  1  0  0  0  0
 11 12  1  0  0  0  0
 11 16  1  0  0  0  0
 12 13  1  0  0  0  0
 13 14  1  0  0  0  0
 13 15  1  0  0  0  0
 15 18  1  0  0  0  0
 16 17  1  0  0  0  0
 17 19  1  0  0  0  0
 17 20  1  0  0  0  0
 20 21  1  0  0  0  0
 20 33  1  0  0  0  0
 21 22  1  0  0  0  0
 22 23  2  0  0  0  0
 22 24  1  0  0  0  0
 24 25  1  0  0  0  0
 25 26  1  0  0  0  0
 25 32  1  0  0  0  0
 26 27  1  0  0  0  0
 27 28  1  0  0  0  0
 28 29  1  0  0  0  0
 28 32  1  0  0  0  0
 29 30  1  0  0  0  0
 30 31  1  0  0  0  0
 31 32  1  0  0  0  0
 33 39  1  0  0  0  0
 34 35  2  0  0  0  0
 34 39  1  0  0  0  0
 35 36  1  0  0  0  0
 36 37  2  0  0  0  0
 37 38  1  0  0  0  0
 38 39  2  0  0  0  0
M  END
>  <InstanceId>
6DH7_K13_A_103

>  <ChemCompId>
K13

>  <PdbId>
6DH7

>  <ChainId>
A

>  <ResidueNumber>
103

>  <InsertionCode>


>  <Model>
1

>  <AltIds>


>  <MissingHeavyAtoms>
0

>  <ObservedFormula>
C28 N3 O7 S

>  <Name>
(3R,3aS,6aR)-hexahydrofuro[2,3-b]furan-3-yl [(1S,2R)-3-{[(4-aminophenyl)sulfonyl][(2S)-2-methylbutyl]amino}-1-benzyl-2-hydroxypropyl]carbamate

>  <SystematicName>
[(3R,3aS,6aR)-2,3,3a,4,5,6a-hexahydrofuro[2,3-b]furan-3-yl] N-[(2S,3R)-4-[(4-aminophenyl)sulfonyl-[(2S)-2-methylbutyl]amino]-3-hydroxy-1-phenyl-butan-2-yl]carbamate

>  <Synonyms>


>  <Type>
NON-POLYMER

>  <Formula>
C28 H39 N3 O7 S

>  <MolecularWeight>
561.69

>  <ModifiedDate>
2011-08-05

>  <Parent>


>  <OneLetterCode>


>  <SubcomponentList>


>  <AmbiguousFlag>
N

>  <InChI>
InChI=1S/C28H39N3O7S/c1-3-19(2)16-31(39(34,35)22-11-9-21(29)10-12-22)17-25(32)24(15-20-7-5-4-6-8-20)30-28(33)38-26-18-37-27-23(26)13-14-36-27/h4-12,19,23-27,32H,3,13-18,29H2,1-2H3,(H,30,33)/t19-,23-,24-,25+,26-,27+/m0/s1

>  <InChIKey>
NKLRQHQHYBFPSD-DRMLODCJSA-N

>  <SMILES>
CC[C@H](C)C[N@@](C[C@H]([C@H](Cc1ccccc1)NC(=O)O[C@H]2CO[C@@H]3[C@H]2CCO3)O)S(=O)(=O)c4ccc(cc4)N

$$$$
