4JYB_GNP_A_401
  RCSB PDB08012022103D
Coordinates from PDB:4JYB:A:401 Model:1 without hydrogens
 32 34  0  0  0  0            999 V2000
   57.5550    4.2660   41.8120   P 0  0  0  0  0  0  0  0  0  0  0  0
   57.3150    2.9880   41.1030   O 0  0  0  0  0  0  0  0  0  0  0  0
   57.7160    5.4310   40.7070   O 0  0  0  0  0  0  0  0  0  0  0  0
   56.3140    4.6680   42.7700   O 0  0  0  0  0  0  0  0  0  0  0  0
   59.0190    4.0620   42.7960   N 0  0  0  0  0  0  0  0  0  0  0  0
   59.6810    5.3670   43.7380   P 0  0  0  0  0  0  0  0  0  0  0  0
   60.4750    6.2310   42.8260   O 0  0  0  0  0  0  0  0  0  0  0  0
   58.5830    6.2300   44.4860   O 0  0  0  0  0  0  0  0  0  0  0  0
   60.6870    4.7830   44.8540   O 0  0  0  0  0  0  0  0  0  0  0  0
   60.3340    4.5510   46.4170   P 0  0  0  0  0  0  0  0  0  0  0  0
   60.2130    5.8870   47.1400   O 0  0  0  0  0  0  0  0  0  0  0  0
   59.2430    3.5360   46.5220   O 0  0  0  0  0  0  0  0  0  0  0  0
   61.7250    3.8840   46.8380   O 0  0  0  0  0  0  0  0  0  0  0  0
   62.1620    2.7010   46.1570   C 0  0  0  0  0  0  0  0  0  0  0  0
   63.1590    1.9810   47.0350   C 0  0  0  0  0  0  0  0  0  0  0  0
   64.3400    2.7730   47.1520   O 0  0  0  0  0  0  0  0  0  0  0  0
   62.6280    1.7740   48.4500   C 0  0  0  0  0  0  0  0  0  0  0  0
   63.1350    0.5480   48.9920   O 0  0  0  0  0  0  0  0  0  0  0  0
   63.1880    2.9270   49.2370   C 0  0  0  0  0  0  0  0  0  0  0  0
   63.4320    2.6660   50.6260   O 0  0  0  0  0  0  0  0  0  0  0  0
   64.5100    3.1370   48.5280   C 0  0  0  0  0  0  0  0  0  0  0  0
   64.9500    4.5330   48.7150   N 0  0  0  0  0  0  0  0  0  0  0  0
   64.2680    5.6880   48.5160   C 0  0  0  0  0  0  0  0  0  0  0  0
   65.0540    6.7620   48.8190   N 0  0  0  0  0  0  0  0  0  0  0  0
   66.2510    6.2840   49.2380   C 0  0  0  0  0  0  0  0  0  0  0  0
   67.5220    6.8450   49.7260   C 0  0  0  0  0  0  0  0  0  0  0  0
   67.6890    8.0870   49.8030   O 0  0  0  0  0  0  0  0  0  0  0  0
   68.5050    5.9740   50.0610   N 0  0  0  0  0  0  0  0  0  0  0  0
   68.3330    4.6350   49.9690   C 0  0  0  0  0  0  0  0  0  0  0  0
   69.3140    3.7890   50.3000   N 0  0  0  0  0  0  0  0  0  0  0  0
   67.1860    4.0560   49.5400   N 0  0  0  0  0  0  0  0  0  0  0  0
   66.1530    4.8240   49.1670   C 0  0  0  0  0  0  0  0  0  0  0  0
  1  2  2  0  0  0  0
  1  3  1  0  0  0  0
  1  4  1  0  0  0  0
  1  5  1  0  0  0  0
  5  6  1  0  0  0  0
  6  7  2  0  0  0  0
  6  8  1  0  0  0  0
  6  9  1  0  0  0  0
  9 10  1  0  0  0  0
 10 11  2  0  0  0  0
 10 12  1  0  0  0  0
 10 13  1  0  0  0  0
 13 14  1  0  0  0  0
 14 15  1  0  0  0  0
 15 16  1  0  0  0  0
 15 17  1  0  0  0  0
 16 21  1  0  0  0  0
 17 18  1  0  0  0  0
 17 19  1  0  0  0  0
 19 20  1  0  0  0  0
 19 21  1  0  0  0  0
 21 22  1  0  0  0  0
 22 23  1  0  0  0  0
 22 32  1  0  0  0  0
 23 24  2  0  0  0  0
 24 25  1  0  0  0  0
 25 26  1  0  0  0  0
 25 32  2  0  0  0  0
 26 27  2  0  0  0  0
 26 28  1  0  0  0  0
 28 29  1  0  0  0  0
 29 30  1  0  0  0  0
 29 31  2  0  0  0  0
 31 32  1  0  0  0  0
M  END
>  <InstanceId>
4JYB_GNP_A_401

>  <ChemCompId>
GNP

>  <PdbId>
4JYB

>  <ChainId>
A

>  <ResidueNumber>
401

>  <InsertionCode>


>  <Model>
1

>  <AltIds>


>  <MissingHeavyAtoms>
0

>  <ObservedFormula>
C10 N6 O13 P3

>  <Name>
PHOSPHOAMINOPHOSPHONIC ACID-GUANYLATE ESTER

>  <SystematicName>
[[[[(2R,3S,4R,5R)-5-(2-amino-6-oxo-1H-purin-9-yl)-3,4-dihydroxy-oxolan-2-yl]methoxy-hydroxy-phosphoryl]oxy-hydroxy-phosphoryl]amino]phosphonic acid

>  <Synonyms>


>  <Type>
NON-POLYMER

>  <Formula>
C10 H17 N6 O13 P3

>  <MolecularWeight>
522.196

>  <ModifiedDate>
2011-06-04

>  <Parent>


>  <OneLetterCode>


>  <SubcomponentList>


>  <AmbiguousFlag>
N

>  <InChI>
InChI=1S/C10H17N6O13P3/c11-10-13-7-4(8(19)14-10)12-2-16(7)9-6(18)5(17)3(28-9)1-27-32(25,26)29-31(23,24)15-30(20,21)22/h2-3,5-6,9,17-18H,1H2,(H,25,26)(H3,11,13,14,19)(H4,15,20,21,22,23,24)/t3-,5-,6-,9-/m1/s1

>  <InChIKey>
UQABYHGXWYXDTK-UUOKFMHZSA-N

>  <SMILES>
c1nc2c(n1[C@H]3[C@@H]([C@@H]([C@H](O3)CO[P@](=O)(O)O[P@@](=O)(NP(=O)(O)O)O)O)O)N=C(NC2=O)N

$$$$
