6CWH_6LA_A_201
  RCSB PDB08022004183D
Coordinates from PDB:6CWH:A:201 Model:1 without hydrogens
 21 22  0  0  0  0            999 V2000
    9.9270  -47.4780   35.8850   C 0  0  0  0  0  0  0  0  0  0  0  0
   10.2110  -47.8770   34.4630   C 0  0  0  0  0  0  0  0  0  0  0  0
   10.9300  -48.8290   34.2460   O 0  0  0  0  0  0  0  0  0  0  0  0
    9.5500  -47.1940   33.5170   N 0  0  0  0  0  0  0  0  0  0  0  0
    9.7180  -47.4110   32.0410   C 0  0  0  0  0  0  0  0  0  0  0  0
    8.3910  -47.7270   31.3290   C 0  0  0  0  0  0  0  0  0  0  0  0
    7.7980  -48.8540   31.9840   O 0  0  0  0  0  0  0  0  0  0  0  0
    7.4940  -46.5620   31.4040   C 0  0  0  0  0  0  0  0  0  0  0  0
    6.3190  -46.7430   30.6060   O 0  0  0  0  0  0  0  0  0  0  0  0
    5.4750  -45.7000   30.6080   C 0  0  0  0  0  0  0  0  0  0  0  0
    4.3690  -46.0200   29.6170   C 0  0  0  0  0  0  0  0  0  0  0  0
    4.8430  -45.5770   32.0190   C 0  0  0  0  0  0  0  0  0  0  0  0
    4.4690  -44.4710   32.4820   O 0  0  0  0  0  0  0  0  0  0  0  0
    4.6850  -46.6400   32.5610   O 0  0  0  0  0  0  0  0  0  0  0  0
    6.1610  -44.4810   30.1610   O 0  0  0  0  0  0  0  0  0  0  0  0
    7.2340  -44.1580   31.0060   C 0  0  0  0  0  0  0  0  0  0  0  0
    8.1930  -45.3220   30.8280   C 0  0  0  0  0  0  0  0  0  0  0  0
    9.3350  -45.0470   31.6340   O 0  0  0  0  0  0  0  0  0  0  0  0
   10.2560  -46.1120   31.4610   C 0  0  0  0  0  0  0  0  0  0  0  0
   11.4040  -45.7760   32.2410   O 0  0  0  0  0  0  0  0  0  0  0  0
   12.1180  -44.6260   31.6720   C 0  0  0  0  0  0  0  0  0  0  0  0
 11 10  1  0  0  0  0
 13 12  2  0  0  0  0
 15 10  1  0  0  0  0
 15 16  1  0  0  0  0
 10 12  1  0  0  0  0
 10  9  1  0  0  0  0
 12 14  1  0  0  0  0
 16 17  1  0  0  0  0
  9  8  1  0  0  0  0
 17  8  1  0  0  0  0
 17 18  1  0  0  0  0
  8  6  1  0  0  0  0
 18 19  1  0  0  0  0
  6  7  1  0  0  0  0
  6  5  1  0  0  0  0
 19  5  1  0  0  0  0
 19 20  1  0  0  0  0
  5  4  1  0  0  0  0
  4  2  1  0  0  0  0
 20 21  1  0  0  0  0
  2  1  1  0  0  0  0
  2  3  2  0  0  0  0
M  END
>  <InstanceId>
6CWH_6LA_A_201

>  <ChemCompId>
6LA

>  <PdbId>
6CWH

>  <ChainId>
A

>  <ResidueNumber>
201

>  <InsertionCode>


>  <Model>
1

>  <AltIds>


>  <MissingHeavyAtoms>
0

>  <ObservedFormula>
C12 N O8

>  <Name>
methyl 2-(acetylamino)-4,6-O-[(1S)-1-carboxyethylidene]-2-deoxy-beta-D-mannopyranoside

>  <SystematicName>
(2~{S},4~{a}~{R},6~{R},7~{S},8~{R},8~{a}~{S})-7-acetamido-6-methoxy-2-methyl-8-oxidanyl-4,4~{a},6,7,8,8~{a}-hexahydropyrano[3,2-d][1,3]dioxine-2-carboxylic acid

>  <Synonyms>


>  <Type>
D-saccharide

>  <Formula>
C12 H19 N O8

>  <MolecularWeight>
305.281

>  <ModifiedDate>
2018-08-10

>  <Parent>


>  <OneLetterCode>


>  <SubcomponentList>


>  <AmbiguousFlag>
N

>  <InChI>
InChI=1S/C12H19NO8/c1-5(14)13-7-8(15)9-6(20-10(7)18-3)4-19-12(2,21-9)11(16)17/h6-10,15H,4H2,1-3H3,(H,13,14)(H,16,17)/t6-,7+,8-,9-,10-,12+/m1/s1

>  <InChIKey>
KCXDWSUMIHDAQQ-KFRVFMFJSA-N

>  <SMILES>
CC(=O)N[C@H]1[C@H]([C@H]2[C@@H](CO[C@](O2)(C)C(=O)O)O[C@H]1OC)O

$$$$
