5EVK_3C7_A_401
  RCSB PDB08022001173D
Coordinates from PDB:5EVK:A:401 Model:1 without hydrogens
 13 14  0  0  0  0            999 V2000
   81.5530   95.8080   16.8180   C 0  0  0  0  0  0  0  0  0  0  0  0
   82.4310   94.5620   19.0550   O 0  0  0  0  0  0  0  0  0  0  0  0
   83.3170   95.0840   18.3660   C 0  0  0  0  0  0  0  0  0  0  0  0
   84.4120   95.3810   18.7840   O 0  0  0  0  0  0  0  0  0  0  0  0
   83.0150   95.4950   16.9220   C 0  0  0  0  0  0  0  0  0  0  0  0
   83.4090   94.4260   15.9660   N 0  0  0  0  0  0  0  0  0  0  0  0
   83.9840   94.8720   14.6720   C 0  0  0  0  0  0  0  0  0  0  0  0
   85.4660   94.5860   14.6260   C 0  0  0  0  0  0  0  0  0  0  0  0
   86.2910   95.8520   15.5660   S 0  0  0  0  0  0  0  0  0  0  0  0
   80.9700   94.6140   15.6610   S 0  0  0  0  0  0  0  0  0  0  0  0
   82.3060   93.4810   15.7570   C 0  0  0  0  0  0  0  0  0  0  0  0
   82.7170   92.6290   14.5500   C 0  0  0  0  0  0  0  0  0  0  0  0
   83.2550   93.8730   13.4380   S 0  0  0  0  0  0  0  0  0  0  0  0
  4  3  2  0  0  0  0
  3  5  1  0  0  0  0
  3  2  1  0  0  0  0
  9  8  1  0  0  0  0
  5  1  1  0  0  0  0
  5  6  1  0  0  0  0
  1 10  1  0  0  0  0
  6  7  1  0  0  0  0
  6 11  1  0  0  0  0
  8  7  1  0  0  0  0
  7 13  1  0  0  0  0
 10 11  1  0  0  0  0
 11 12  1  0  0  0  0
 13 12  1  0  0  0  0
M  END
>  <InstanceId>
5EVK_3C7_A_401

>  <ChemCompId>
3C7

>  <PdbId>
5EVK

>  <ChainId>
A

>  <ResidueNumber>
401

>  <InsertionCode>


>  <Model>
1

>  <AltIds>


>  <MissingHeavyAtoms>
0

>  <ObservedFormula>
C7 N O2 S3

>  <Name>
(3R,5R,7aS)-5-(sulfanylmethyl)tetrahydro[1,3]thiazolo[4,3-b][1,3]thiazole-3-carboxylic acid

>  <SystematicName>
(3R,5R,7aS)-5-(sulfanylmethyl)-3,5,7,7a-tetrahydro-2H-[1,3]thiazolo[3,2-c][1,3]thiazole-3-carboxylic acid

>  <Synonyms>


>  <Type>
NON-POLYMER

>  <Formula>
C7 H11 N O2 S3

>  <MolecularWeight>
237.363

>  <ModifiedDate>
2014-09-05

>  <Parent>


>  <OneLetterCode>


>  <SubcomponentList>


>  <AmbiguousFlag>
N

>  <InChI>
InChI=1S/C7H11NO2S3/c9-7(10)4-2-12-6-3-13-5(1-11)8(4)6/h4-6,11H,1-3H2,(H,9,10)/t4-,5+,6-/m0/s1

>  <InChIKey>
ZTWVMVSSSBGFHH-JKUQZMGJSA-N

>  <SMILES>
C1[C@H](N2[C@@H](S1)CS[C@@H]2CS)C(=O)O

$$$$
