5TFX_7B1_A_303
  RCSB PDB08022003043D
Coordinates from PDB:5TFX:A:303 Model:1 without hydrogens
 22 24  0  0  0  0            999 V2000
   -2.2580   11.8120   80.2460   C 0  0  0  0  0  0  0  0  0  0  0  0
   -3.5320   11.3990   80.5390   C 0  0  0  0  0  0  0  0  0  0  0  0
   -1.1820   10.9550   80.3710   C 0  0  0  0  0  0  0  0  0  0  0  0
   -3.7470   10.1060   80.9720   C 0  0  0  0  0  0  0  0  0  0  0  0
   -1.3920    9.6650   80.7980   C 0  0  0  0  0  0  0  0  0  0  0  0
   -0.2190    3.5870   84.7090   C 0  0  0  0  0  0  0  0  0  0  0  0
   -0.8430    2.6200   85.4370   C 0  0  0  0  0  0  0  0  0  0  0  0
   -3.0260    3.5860   85.0560   C 0  0  0  0  0  0  0  0  0  0  0  0
   -2.6870    9.2620   81.0930   C 0  0  0  0  0  0  0  0  0  0  0  0
   -2.3750    4.5360   84.3010   C 0  0  0  0  0  0  0  0  0  0  0  0
   -1.0080    4.5350   84.1460   C 0  0  0  0  0  0  0  0  0  0  0  0
   -2.2150    2.6120   85.6010   C 0  0  0  0  0  0  0  0  0  0  0  0
   -2.9790    7.9050   81.5750   C 0  0  0  0  0  0  0  0  0  0  0  0
   -1.9130    6.2750   82.9390   C 0  0  0  0  0  0  0  0  0  0  0  0
   -2.3760   -0.1330   86.0280   N 0  0  0  0  0  0  0  0  0  0  0  0
   -2.9690    5.6200   83.6540   N 0  0  0  0  0  0  0  0  0  0  0  0
   -1.9160    7.4510   82.2210   N 0  0  0  0  0  0  0  0  0  0  0  0
   -0.6080    5.5510   83.4010   O 0  0  0  0  0  0  0  0  0  0  0  0
   -3.9990    7.2740   81.4670   O 0  0  0  0  0  0  0  0  0  0  0  0
   -2.3230    1.4910   87.9470   O 0  0  0  0  0  0  0  0  0  0  0  0
   -4.3270    1.4180   86.4850   O 0  0  0  0  0  0  0  0  0  0  0  0
   -2.8800    1.3070   86.6170   S 0  0  0  0  0  0  0  0  0  0  0  0
  1  3  2  0  0  0  0
  1  2  1  0  0  0  0
  3  5  1  0  0  0  0
  2  4  2  0  0  0  0
  5  9  2  0  0  0  0
  4  9  1  0  0  0  0
  9 13  1  0  0  0  0
 19 13  2  0  0  0  0
 13 17  1  0  0  0  0
 17 14  1  0  0  0  0
 14 18  1  0  0  0  0
 14 16  2  0  0  0  0
 18 11  1  0  0  0  0
 16 10  1  0  0  0  0
 11 10  2  0  0  0  0
 11  6  1  0  0  0  0
 10  8  1  0  0  0  0
  6  7  2  0  0  0  0
  8 12  2  0  0  0  0
  7 12  1  0  0  0  0
 12 22  1  0  0  0  0
 15 22  1  0  0  0  0
 21 22  2  0  0  0  0
 22 20  2  0  0  0  0
M  END
>  <InstanceId>
5TFX_7B1_A_303

>  <ChemCompId>
7B1

>  <PdbId>
5TFX

>  <ChainId>
A

>  <ResidueNumber>
303

>  <InsertionCode>


>  <Model>
1

>  <AltIds>


>  <MissingHeavyAtoms>
0

>  <ObservedFormula>
C14 N3 O4 S

>  <Name>
N-(5-sulfamoyl-1,3-benzoxazol-2-yl)benzamide

>  <SystematicName>
~{N}-(5-sulfamoyl-1,3-benzoxazol-2-yl)benzamide

>  <Synonyms>


>  <Type>
NON-POLYMER

>  <Formula>
C14 H11 N3 O4 S

>  <MolecularWeight>
317.32

>  <ModifiedDate>
2017-08-04

>  <Parent>


>  <OneLetterCode>


>  <SubcomponentList>


>  <AmbiguousFlag>
N

>  <InChI>
InChI=1S/C14H11N3O4S/c15-22(19,20)10-6-7-12-11(8-10)16-14(21-12)17-13(18)9-4-2-1-3-5-9/h1-8H,(H2,15,19,20)(H,16,17,18)

>  <InChIKey>
UWRXFOQPZCPECA-UHFFFAOYSA-N

>  <SMILES>
c1ccc(cc1)C(=O)Nc2nc3cc(ccc3o2)S(=O)(=O)N

$$$$
