1OLS_TDP_A_601
  RCSB PDB08012015393D
Coordinates from PDB:1OLS:A:601 Model:1 without hydrogens
 26 27  0  0  0  0            999 V2000
   76.9340    0.6020   11.3740   N 0  0  0  0  0  0  0  0  0  0  0  0
   77.1640    1.8410   11.8700   C 0  0  0  0  0  0  0  0  0  0  0  0
   77.2730    1.9580   13.3810   C 0  0  0  0  0  0  0  0  0  0  0  0
   77.2910    2.9400   11.0820   N 0  0  0  0  0  0  0  0  0  0  0  0
   77.1810    2.7520    9.7420   C 0  0  0  0  0  0  0  0  0  0  0  0
   77.3150    3.8870    8.9960   N 0  0  0  0  0  0  0  0  0  0  0  0
   76.9430    1.4630    9.1230   C 0  0  0  0  0  0  0  0  0  0  0  0
   76.8250    0.4060   10.0470   C 0  0  0  0  0  0  0  0  0  0  0  0
   76.8250    1.2690    7.6090   C 0  0  0  0  0  0  0  0  0  0  0  0
   75.5810    1.8700    7.0970   N 0  3  0  0  0  0  0  0  0  0  0  0
   75.5550    3.1620    6.5480   C 0  0  0  0  0  0  0  0  0  0  0  0
   73.9200    3.5610    6.0770   S 0  0  0  0  0  0  0  0  0  0  0  0
   73.3190    1.9950    6.6180   C 0  0  0  0  0  0  0  0  0  0  0  0
   74.2650    1.1690    7.1360   C 0  0  0  0  0  0  0  0  0  0  0  0
   74.0720   -0.2540    7.6840   C 0  0  0  0  0  0  0  0  0  0  0  0
   71.8230    1.7960    6.4420   C 0  0  0  0  0  0  0  0  0  0  0  0
   71.0200    2.7630    7.3870   C 0  0  0  0  0  0  0  0  0  0  0  0
   69.6200    2.6050    7.0980   O 0  0  0  0  0  0  0  0  0  0  0  0
   68.5990    3.6470    7.6560   P 0  0  0  0  0  0  0  0  0  0  0  0
   68.6740    4.9160    6.7000   O 0  0  0  0  0  0  0  0  0  0  0  0
   68.9330    4.0400    9.0280   O 0  0  0  0  0  0  0  0  0  0  0  0
   67.2190    3.0420    7.5680   O 0  0  0  0  0  0  0  0  0  0  0  0
   68.4170    5.0790    5.1170   P 0  0  0  0  0  0  0  0  0  0  0  0
   67.9780    6.5490    4.9480   O 0  0  0  0  0  0  0  0  0  0  0  0
   69.7350    4.8360    4.4960   O 0  5  0  0  0  0  0  0  0  0  0  0
   67.3780    4.1230    4.6640   O 0  0  0  0  0  0  0  0  0  0  0  0
  1  2  2  0  0  0  0
  1  8  1  0  0  0  0
  2  3  1  0  0  0  0
  2  4  1  0  0  0  0
  4  5  2  0  0  0  0
  5  6  1  0  0  0  0
  5  7  1  0  0  0  0
  7  8  2  0  0  0  0
  7  9  1  0  0  0  0
  9 10  1  0  0  0  0
 10 11  2  0  0  0  0
 10 14  1  0  0  0  0
 11 12  1  0  0  0  0
 12 13  1  0  0  0  0
 13 14  2  0  0  0  0
 13 16  1  0  0  0  0
 14 15  1  0  0  0  0
 16 17  1  0  0  0  0
 17 18  1  0  0  0  0
 18 19  1  0  0  0  0
 19 20  1  0  0  0  0
 19 21  2  0  0  0  0
 19 22  1  0  0  0  0
 20 23  1  0  0  0  0
 23 24  2  0  0  0  0
 23 25  1  0  0  0  0
 23 26  1  0  0  0  0
M  CHG  2  10   1  25  -1
M  END
>  <InstanceId>
1OLS_TDP_A_601

>  <ChemCompId>
TDP

>  <PdbId>
1OLS

>  <ChainId>
A

>  <ResidueNumber>
601

>  <InsertionCode>


>  <Model>
1

>  <AltIds>


>  <MissingHeavyAtoms>
0

>  <ObservedFormula>
C12 N4 O7 P2 S

>  <Name>
THIAMIN DIPHOSPHATE

>  <SystematicName>
[2-[3-[(4-amino-2-methyl-pyrimidin-5-yl)methyl]-4-methyl-1,3-thiazol-3-ium-5-yl]ethoxy-hydroxy-phosphoryl] hydrogen phosphate

>  <Synonyms>


>  <Type>
NON-POLYMER

>  <Formula>
C12 H18 N4 O7 P2 S

>  <MolecularWeight>
424.306

>  <ModifiedDate>
2011-06-04

>  <Parent>


>  <OneLetterCode>


>  <SubcomponentList>


>  <AmbiguousFlag>
N

>  <InChI>
InChI=1S/C12H18N4O7P2S/c1-8-11(3-4-22-25(20,21)23-24(17,18)19)26-7-16(8)6-10-5-14-9(2)15-12(10)13/h5,7H,3-4,6H2,1-2H3,(H4-,13,14,15,17,18,19,20,21)

>  <InChIKey>
AYEKOFBPNLCAJY-UHFFFAOYSA-N

>  <SMILES>
Cc1c(sc[n+]1Cc2cnc(nc2N)C)CCO[P@@](=O)(O)O[P@](=O)(O)[O-]

$$$$
