4BAN_M6S_B_1287
  RCSB PDB08012021123D
Coordinates from PDB:4BAN:B:1287 Model:1 without hydrogens
 32 34  0  0  0  0            999 V2000
   18.7550  -14.5330   24.3130   C 0  0  0  0  0  0  0  0  0  0  0  0
   18.9820  -15.9020   24.9910   C 0  0  0  0  0  0  0  0  0  0  0  0
   19.5380  -15.7040   26.4150   C 0  0  0  0  0  0  0  0  0  0  0  0
   20.8480  -14.8930   26.3990   C 0  0  0  0  0  0  0  0  0  0  0  0
   20.6360  -13.5210   25.7340   C 0  0  0  0  0  0  0  0  0  0  0  0
   20.0780  -13.7220   24.3110   C 0  0  0  0  0  0  0  0  0  0  0  0
   16.9120  -15.4810   22.9110   N 0  0  0  0  0  0  0  0  0  0  0  0
   18.1870  -14.7150   22.8850   C 0  0  0  0  0  0  0  0  0  0  0  0
   17.8930  -13.3740   22.2670   C 0  0  0  0  0  0  0  0  0  0  0  0
   16.8400  -12.8000   22.5530   O 0  0  0  0  0  0  0  0  0  0  0  0
   18.7300  -12.7970   21.3670   N 0  0  0  0  0  0  0  0  0  0  0  0
   18.5620  -11.5920   20.5480   C 0  0  0  0  0  0  0  0  0  0  0  0
   17.1940  -11.7130   19.9190   C 0  0  0  0  0  0  0  0  0  0  0  0
   16.9030  -12.7360   19.3270   O 0  0  0  0  0  0  0  0  0  0  0  0
   16.2630  -10.7680   20.1290   N 0  0  0  0  0  0  0  0  0  0  0  0
   14.9340  -10.9720   19.5560   C 0  0  0  0  0  0  0  0  0  0  0  0
   13.9560  -10.9430   20.6920   C 0  0  0  0  0  0  0  0  0  0  0  0
   13.4490   -9.7210   21.0990   C 0  0  0  0  0  0  0  0  0  0  0  0
   12.5350   -9.6630   22.1360   C 0  0  0  0  0  0  0  0  0  0  0  0
   12.1730  -10.8340   22.8130   C 0  0  0  0  0  0  0  0  0  0  0  0
   12.7020  -12.0710   22.3980   C 0  0  0  0  0  0  0  0  0  0  0  0
   13.5990  -12.1160   21.3380   C 0  0  0  0  0  0  0  0  0  0  0  0
   11.1560  -10.7780   23.9000   C 0  0  0  0  0  0  0  0  0  0  0  0
   10.4320  -11.8410   24.1870   N 0  0  0  0  0  0  0  0  0  0  0  0
   10.8940   -9.5970   24.5570   N 0  0  0  0  0  0  0  0  0  0  0  0
   19.7500  -11.9790   19.6520   C 0  0  0  0  0  0  0  0  0  0  0  0
   19.9870  -13.1160   20.6570   C 0  0  0  0  0  0  0  0  0  0  0  0
   16.3280  -15.8450   21.5910   C 0  0  0  0  0  0  0  0  0  0  0  0
   14.8150  -15.9560   21.6790   C 0  0  0  0  0  0  0  0  0  0  0  0
   14.2850  -16.3140   22.7220   O 0  0  0  0  0  0  0  0  0  0  0  0
   12.5900  -15.6930   20.5780   C 0  0  0  0  0  0  0  0  0  0  0  0
   14.0640  -15.6410   20.5900   N 0  0  0  0  0  0  0  0  0  0  0  0
  1  2  1  0  0  0  0
  1  6  1  0  0  0  0
  1  8  1  0  0  0  0
  2  3  1  0  0  0  0
  3  4  1  0  0  0  0
  4  5  1  0  0  0  0
  5  6  1  0  0  0  0
  7  8  1  0  0  0  0
  7 28  1  0  0  0  0
  8  9  1  0  0  0  0
  9 10  2  0  0  0  0
  9 11  1  0  0  0  0
 11 12  1  0  0  0  0
 11 27  1  0  0  0  0
 12 13  1  0  0  0  0
 12 26  1  0  0  0  0
 13 14  2  0  0  0  0
 13 15  1  0  0  0  0
 15 16  1  0  0  0  0
 16 17  1  0  0  0  0
 17 18  1  0  0  0  0
 17 22  2  0  0  0  0
 18 19  2  0  0  0  0
 19 20  1  0  0  0  0
 20 21  2  0  0  0  0
 20 23  1  0  0  0  0
 21 22  1  0  0  0  0
 23 24  2  0  0  0  0
 23 25  1  0  0  0  0
 26 27  1  0  0  0  0
 28 29  1  0  0  0  0
 29 30  2  0  0  0  0
 29 32  1  0  0  0  0
 31 32  1  0  0  0  0
M  END
>  <InstanceId>
4BAN_M6S_B_1287

>  <ChemCompId>
M6S

>  <PdbId>
4BAN

>  <ChainId>
B

>  <ResidueNumber>
1287

>  <InsertionCode>


>  <Model>
1

>  <AltIds>


>  <MissingHeavyAtoms>
0

>  <ObservedFormula>
C23 N6 O3

>  <Name>
(2S)-N-[(4-carbamimidoylphenyl)methyl]-1-[(2R)-2-cyclohexyl-2-[[2-(methylamino)-2-oxidanylidene-ethyl]amino]ethanoyl]azetidine-2-carboxamide

>  <SystematicName>
(2S)-N-[(4-carbamimidoylphenyl)methyl]-1-[(2R)-2-cyclohexyl-2-[[2-(methylamino)-2-oxidanylidene-ethyl]amino]ethanoyl]azetidine-2-carboxamide

>  <Synonyms>


>  <Type>
non-polymer

>  <Formula>
C23 H34 N6 O3

>  <MolecularWeight>
442.554

>  <ModifiedDate>
2014-09-05

>  <Parent>


>  <OneLetterCode>


>  <SubcomponentList>


>  <AmbiguousFlag>
N

>  <InChI>
InChI=1S/C23H34N6O3/c1-26-19(30)14-27-20(16-5-3-2-4-6-16)23(32)29-12-11-18(29)22(31)28-13-15-7-9-17(10-8-15)21(24)25/h7-10,16,18,20,27H,2-6,11-14H2,1H3,(H3,24,25)(H,26,30)(H,28,31)/t18-,20+/m0/s1

>  <InChIKey>
SDEUQAIXWAGFLP-AZUAARDMSA-N

>  <SMILES>
[H]/N=C(/c1ccc(cc1)CNC(=O)[C@@H]2CCN2C(=O)[C@@H](C3CCCCC3)NCC(=O)NC)\N

$$$$
