4IJ1_17C_A_401
  RCSB PDB08012022013D
Coordinates from PDB:4IJ1:A:401 Model:1 without hydrogens
 19 20  0  0  0  0            999 V2000
    7.3740    3.6460   27.1310   O 0  0  0  0  0  0  0  0  0  0  0  0
    3.5830    1.1730   29.2050   O 0  0  0  0  0  0  0  0  0  0  0  0
    8.5270    3.1560   25.3520   O 0  0  0  0  0  0  0  0  0  0  0  0
    5.1170    2.5240   28.3980   O 0  0  0  0  0  0  0  0  0  0  0  0
   10.7050    0.1150   28.6140   C 0  0  0  0  0  0  0  0  0  0  0  0
    7.1580    1.1210   32.7180   C 0  0  0  0  0  0  0  0  0  0  0  0
   11.1010    0.6470   27.3950   C 0  0  0  0  0  0  0  0  0  0  0  0
    5.7740    1.0360   32.8270   C 0  0  0  0  0  0  0  0  0  0  0  0
    9.5010    0.5190   29.1800   C 0  0  0  0  0  0  0  0  0  0  0  0
    7.7460    1.4060   31.4930   C 0  0  0  0  0  0  0  0  0  0  0  0
   10.2900    1.5770   26.7550   C 0  0  0  0  0  0  0  0  0  0  0  0
    4.9770    1.2430   31.7020   C 0  0  0  0  0  0  0  0  0  0  0  0
    7.4890    1.8790   29.1170   N 0  0  0  0  0  0  0  0  0  0  0  0
    8.2790    2.9900   26.5690   C 0  0  0  0  0  0  0  0  0  0  0  0
    4.7030    1.7450   29.2850   C 0  0  0  0  0  0  0  0  0  0  0  0
    8.6770    1.4670   28.5660   C 0  0  0  0  0  0  0  0  0  0  0  0
    6.9650    1.5960   30.3540   C 0  0  0  0  0  0  0  0  0  0  0  0
    9.0890    1.9840   27.3320   C 0  0  0  0  0  0  0  0  0  0  0  0
    5.5790    1.5230   30.4790   C 0  0  0  0  0  0  0  0  0  0  0  0
 14  1  1  0  0  0  0
 15  2  1  0  0  0  0
  3 14  2  0  0  0  0
  4 15  2  0  0  0  0
  7  5  2  0  0  0  0
  5  9  1  0  0  0  0
 10  6  2  0  0  0  0
  6  8  1  0  0  0  0
 11  7  1  0  0  0  0
 12  8  2  0  0  0  0
 16  9  2  0  0  0  0
 17 10  1  0  0  0  0
 11 18  2  0  0  0  0
 19 12  1  0  0  0  0
 16 13  1  0  0  0  0
 13 17  1  0  0  0  0
 14 18  1  0  0  0  0
 15 19  1  0  0  0  0
 18 16  1  0  0  0  0
 17 19  2  0  0  0  0
M  END
>  <InstanceId>
4IJ1_17C_A_401

>  <ChemCompId>
17C

>  <PdbId>
4IJ1

>  <ChainId>
A

>  <ResidueNumber>
401

>  <InsertionCode>


>  <Model>
1

>  <AltIds>


>  <MissingHeavyAtoms>
0

>  <ObservedFormula>
C14 N O4

>  <Name>
2,2'-iminodibenzoic acid

>  <SystematicName>
2-[(2-carboxyphenyl)amino]benzoic acid

>  <Synonyms>


>  <Type>
NON-POLYMER

>  <Formula>
C14 H11 N O4

>  <MolecularWeight>
257.241

>  <ModifiedDate>
2012-08-17

>  <Parent>


>  <OneLetterCode>


>  <SubcomponentList>


>  <AmbiguousFlag>
N

>  <InChI>
InChI=1S/C14H11NO4/c16-13(17)9-5-1-3-7-11(9)15-12-8-4-2-6-10(12)14(18)19/h1-8,15H,(H,16,17)(H,18,19)

>  <InChIKey>
ZFRNOTZQUGWMQN-UHFFFAOYSA-N

>  <SMILES>
c1ccc(c(c1)C(=O)O)Nc2ccccc2C(=O)O

$$$$
