5KQX_ROC_A_101
  RCSB PDB08022002053D
Coordinates from PDB:5KQX:A:101 Model:1 without hydrogens
 49 53  0  0  0  0            999 V2000
  -18.3420    8.0020  -16.5070   C 0  0  0  0  0  0  0  0  0  0  0  0
  -18.3380    8.4680  -15.3790   O 0  0  0  0  0  0  0  0  0  0  0  0
  -18.7130    6.0830  -17.9600   N 0  0  0  0  0  0  0  0  0  0  0  0
  -19.2430    6.8430  -16.9600   C 0  0  0  0  0  0  0  0  0  0  0  0
  -20.5170    6.5880  -16.4800   C 0  0  0  0  0  0  0  0  0  0  0  0
  -21.2360    5.5440  -16.9850   C 0  0  0  0  0  0  0  0  0  0  0  0
  -21.4390    3.6750  -18.5140   C 0  0  0  0  0  0  0  0  0  0  0  0
  -20.8960    2.8800  -19.5210   C 0  0  0  0  0  0  0  0  0  0  0  0
  -19.6250    3.1550  -20.0180   C 0  0  0  0  0  0  0  0  0  0  0  0
  -18.8860    4.2300  -19.5030   C 0  0  0  0  0  0  0  0  0  0  0  0
  -20.6970    4.7560  -17.9880   C 0  0  0  0  0  0  0  0  0  0  0  0
  -19.4390    5.0280  -18.4780   C 0  0  0  0  0  0  0  0  0  0  0  0
  -17.5030    8.5310  -17.5320   N 0  0  0  0  0  0  0  0  0  0  0  0
  -16.6410    9.6160  -17.2820   C 0  0  0  0  0  0  0  0  0  0  0  0
  -16.8990   10.5490  -18.4550   C 0  0  0  0  0  0  0  0  0  0  0  0
  -16.3720   10.3600  -19.5370   O 0  0  0  0  0  0  0  0  0  0  0  0
  -15.1980    9.2240  -17.2550   C 0  0  0  0  0  0  0  0  0  0  0  0
  -14.9490    8.4510  -15.9820   C 0  0  0  0  0  0  0  0  0  0  0  0
  -14.9580    9.0110  -14.8940   O 0  0  0  0  0  0  0  0  0  0  0  0
  -14.7220    7.0510  -16.0660   N 0  0  0  0  0  0  0  0  0  0  0  0
  -17.5930   13.9150  -18.7450   C 0  0  0  0  0  0  0  0  0  0  0  0
  -18.3680   14.3750  -17.6800   O 0  0  0  0  0  0  0  0  0  0  0  0
  -18.0870   12.5600  -19.2590   C 0  0  0  0  0  0  0  0  0  0  0  0
  -17.8080   11.6440  -18.2210   N 0  0  0  0  0  0  0  0  0  0  0  0
  -19.5780   12.5460  -19.4770   C 0  0  0  0  0  0  0  0  0  0  0  0
  -20.1270   11.1220  -19.7120   C 0  0  0  0  0  0  0  0  0  0  0  0
  -20.6470   10.3790  -18.6540   C 0  0  0  0  0  0  0  0  0  0  0  0
  -20.1540   10.5920  -20.9950   C 0  0  0  0  0  0  0  0  0  0  0  0
  -21.1610    9.1070  -18.8810   C 0  0  0  0  0  0  0  0  0  0  0  0
  -20.6770    9.3270  -21.2310   C 0  0  0  0  0  0  0  0  0  0  0  0
  -21.1710    8.5830  -20.1700   C 0  0  0  0  0  0  0  0  0  0  0  0
  -16.3650   14.7430  -20.6820   N 0  0  0  0  0  0  0  0  0  0  0  0
  -17.5930   14.9370  -19.8920   C 0  0  0  0  0  0  0  0  0  0  0  0
  -16.5660   15.4940  -21.9770   C 0  0  0  0  0  0  0  0  0  0  0  0
  -17.6520   14.8450  -22.7540   C 0  0  0  0  0  0  0  0  0  0  0  0
  -17.8760   13.6610  -22.6560   O 0  0  0  0  0  0  0  0  0  0  0  0
  -15.2930   15.6140  -22.8270   C 0  0  0  0  0  0  0  0  0  0  0  0
  -14.1560   16.1850  -22.0290   C 0  0  0  0  0  0  0  0  0  0  0  0
  -12.9050   16.1480  -22.9480   C 0  0  0  0  0  0  0  0  0  0  0  0
  -12.4070   14.7160  -23.1560   C 0  0  0  0  0  0  0  0  0  0  0  0
  -12.1260   14.0340  -21.8320   C 0  0  0  0  0  0  0  0  0  0  0  0
  -13.4040   14.0050  -20.9920   C 0  0  0  0  0  0  0  0  0  0  0  0
  -13.9420   15.4340  -20.7440   C 0  0  0  0  0  0  0  0  0  0  0  0
  -15.2180   15.2930  -19.9080   C 0  0  0  0  0  0  0  0  0  0  0  0
  -18.3940   15.7440  -23.6140   N 0  0  0  0  0  0  0  0  0  0  0  0
  -19.4910   15.3550  -24.4760   C 0  0  0  0  0  0  0  0  0  0  0  0
  -19.0100   14.3480  -25.5100   C 0  0  0  0  0  0  0  0  0  0  0  0
  -20.6360   14.7900  -23.6440   C 0  0  0  0  0  0  0  0  0  0  0  0
  -19.9440   16.6170  -25.1660   C 0  0  0  0  0  0  0  0  0  0  0  0
  2  1  2  0  0  0  0
  1  4  1  0  0  0  0
  3  4  2  0  0  0  0
  3 12  1  0  0  0  0
  4  5  1  0  0  0  0
  5  6  2  0  0  0  0
  6 11  1  0  0  0  0
 11  7  2  0  0  0  0
 11 12  1  0  0  0  0
  7  8  1  0  0  0  0
  8  9  2  0  0  0  0
  9 10  1  0  0  0  0
 10 12  2  0  0  0  0
 13 14  1  0  0  0  0
 14 15  1  0  0  0  0
 14 17  1  0  0  0  0
 15 16  2  0  0  0  0
 17 18  1  0  0  0  0
 18 19  2  0  0  0  0
 18 20  1  0  0  0  0
 21 22  1  0  0  0  0
 21 23  1  0  0  0  0
 23 24  1  0  0  0  0
 23 25  1  0  0  0  0
 25 26  1  0  0  0  0
 26 27  2  0  0  0  0
 26 28  1  0  0  0  0
 27 29  1  0  0  0  0
 28 30  2  0  0  0  0
 29 31  2  0  0  0  0
 30 31  1  0  0  0  0
 32 33  1  0  0  0  0
 32 34  1  0  0  0  0
 32 44  1  0  0  0  0
 34 35  1  0  0  0  0
 34 37  1  0  0  0  0
 35 36  2  0  0  0  0
 37 38  1  0  0  0  0
 38 39  1  0  0  0  0
 38 43  1  0  0  0  0
 39 40  1  0  0  0  0
 40 41  1  0  0  0  0
 41 42  1  0  0  0  0
 42 43  1  0  0  0  0
 43 44  1  0  0  0  0
 45 46  1  0  0  0  0
 46 47  1  0  0  0  0
 46 48  1  0  0  0  0
 46 49  1  0  0  0  0
  1 13  1  0  0  0  0
 15 24  1  0  0  0  0
 21 33  1  0  0  0  0
 35 45  1  0  0  0  0
M  END
>  <InstanceId>
5KQX_ROC_A_101

>  <ChemCompId>
ROC

>  <PdbId>
5KQX

>  <ChainId>
A

>  <ResidueNumber>
101

>  <InsertionCode>


>  <Model>
1

>  <AltIds>


>  <MissingHeavyAtoms>
0

>  <ObservedFormula>
C38 N6 O5

>  <Name>
(2S)-N-[(2S,3R)-4-[(2S,3S,4aS,8aS)-3-(tert-butylcarbamoyl)-3,4,4a,5,6,7,8,8a-octahydro-1H-isoquinolin-2-yl]-3-hydroxy-1 -phenyl-butan-2-yl]-2-(quinolin-2-ylcarbonylamino)butanediamide

>  <SystematicName>
(2S)-N-[(2S,3R)-4-[(2S,3S,4aS,8aS)-3-(tert-butylcarbamoyl)-3,4,4a,5,6,7,8,8a-octahydro-1H-isoquinolin-2-yl]-3-hydroxy-1-phenyl-butan-2-yl]-2-(quinolin-2-ylcarbonylamino)butanediamide

>  <Synonyms>
Fortovase; SAQUINAVIR; RO 31-8959

>  <Type>
peptide-like

>  <Formula>
C38 H50 N6 O5

>  <MolecularWeight>
670.841

>  <ModifiedDate>
2020-07-02

>  <Parent>


>  <OneLetterCode>


>  <SubcomponentList>
QNC ASN HP0 NTB

>  <AmbiguousFlag>
N

>  <InChI>
InChI=1S/C38H50N6O5/c1-38(2,3)43-37(49)32-20-26-14-7-8-15-27(26)22-44(32)23-33(45)30(19-24-11-5-4-6-12-24)41-36(48)31(21-34(39)46)42-35(47)29-18-17-25-13-9-10-16-28(25)40-29/h4-6,9-13,16-18,26-27,30-33,45H,7-8,14-15,19-23H2,1-3H3,(H2,39,46)(H,41,48)(H,42,47)(H,43,49)/t26-,27+,30-,31-,32-,33+/m0/s1

>  <InChIKey>
QWAXKHKRTORLEM-UGJKXSETSA-N

>  <SMILES>
CC(C)(C)NC(=O)[C@@H]1C[C@@H]2CCCC[C@@H]2C[N@]1C[C@H]([C@H](Cc3ccccc3)NC(=O)[C@H](CC(=O)N)NC(=O)c4ccc5ccccc5n4)O

$$$$
