2FQX_GMP_A_400
  RCSB PDB08012017003D
Coordinates from PDB:2FQX:A:400 Model:1 without hydrogens
 20 22  0  0  0  0            999 V2000
   31.4040   62.4540   13.3650   O 0  0  0  0  0  0  0  0  0  0  0  0
   31.1240   61.0890   13.6970   C 0  0  0  0  0  0  0  0  0  0  0  0
   32.1240   60.1230   13.0500   C 0  0  0  0  0  0  0  0  0  0  0  0
   32.0410   60.2400   11.6200   O 0  0  0  0  0  0  0  0  0  0  0  0
   33.5730   60.4900   13.3730   C 0  0  0  0  0  0  0  0  0  0  0  0
   33.9590   59.9160   14.6270   O 0  0  0  0  0  0  0  0  0  0  0  0
   34.2890   59.7510   12.2450   C 0  0  0  0  0  0  0  0  0  0  0  0
   34.2830   58.3390   12.4800   O 0  0  0  0  0  0  0  0  0  0  0  0
   33.3580   60.0540   11.0680   C 0  0  0  0  0  0  0  0  0  0  0  0
   33.7210   61.3090   10.3680   N 0  0  0  0  0  0  0  0  0  0  0  0
   33.3780   62.5540   10.6980   C 0  0  0  0  0  0  0  0  0  0  0  0
   33.8610   63.3990    9.7900   N 0  0  0  0  0  0  0  0  0  0  0  0
   34.5170   62.6940    8.8710   C 0  0  0  0  0  0  0  0  0  0  0  0
   35.1930   63.0090    7.6970   C 0  0  0  0  0  0  0  0  0  0  0  0
   35.3470   64.1750    7.3280   O 0  0  0  0  0  0  0  0  0  0  0  0
   35.7360   61.9720    6.9340   N 0  0  0  0  0  0  0  0  0  0  0  0
   35.6030   60.6420    7.3580   C 0  0  0  0  0  0  0  0  0  0  0  0
   36.1220   59.6570    6.6330   N 0  0  0  0  0  0  0  0  0  0  0  0
   34.9520   60.3760    8.4970   N 0  0  0  0  0  0  0  0  0  0  0  0
   34.4200   61.3580    9.2410   C 0  0  0  0  0  0  0  0  0  0  0  0
  1  2  1  0  0  0  0
  2  3  1  0  0  0  0
  3  4  1  0  0  0  0
  3  5  1  0  0  0  0
  4  9  1  0  0  0  0
  5  6  1  0  0  0  0
  5  7  1  0  0  0  0
  7  8  1  0  0  0  0
  7  9  1  0  0  0  0
  9 10  1  0  0  0  0
 10 11  1  0  0  0  0
 10 20  1  0  0  0  0
 11 12  2  0  0  0  0
 12 13  1  0  0  0  0
 13 14  1  0  0  0  0
 13 20  2  0  0  0  0
 14 15  2  0  0  0  0
 14 16  1  0  0  0  0
 16 17  1  0  0  0  0
 17 18  1  0  0  0  0
 17 19  2  0  0  0  0
 19 20  1  0  0  0  0
M  END
>  <InstanceId>
2FQX_GMP_A_400

>  <ChemCompId>
GMP

>  <PdbId>
2FQX

>  <ChainId>
A

>  <ResidueNumber>
400

>  <InsertionCode>


>  <Model>
1

>  <AltIds>


>  <MissingHeavyAtoms>
0

>  <ObservedFormula>
C10 N5 O5

>  <Name>
GUANOSINE

>  <SystematicName>
2-amino-9-[(2R,3R,4S,5R)-3,4-dihydroxy-5-(hydroxymethyl)oxolan-2-yl]-1H-purin-6-one

>  <Synonyms>


>  <Type>
NON-POLYMER

>  <Formula>
C10 H13 N5 O5

>  <MolecularWeight>
283.241

>  <ModifiedDate>
2012-01-05

>  <Parent>


>  <OneLetterCode>


>  <SubcomponentList>


>  <AmbiguousFlag>
N

>  <InChI>
InChI=1S/C10H13N5O5/c11-10-13-7-4(8(19)14-10)12-2-15(7)9-6(18)5(17)3(1-16)20-9/h2-3,5-6,9,16-18H,1H2,(H3,11,13,14,19)/t3-,5-,6-,9-/m1/s1

>  <InChIKey>
NYHBQMYGNKIUIF-UUOKFMHZSA-N

>  <SMILES>
c1nc2c(n1[C@H]3[C@@H]([C@@H]([C@H](O3)CO)O)O)N=C(NC2=O)N

$$$$
