2PGZ_COC_A_401
  RCSB PDB08012017433D
Coordinates from PDB:2PGZ:A:401 Model:1 without hydrogens
 22 24  0  0  0  0            999 V2000
  -10.1970   19.6950   59.8270   C 0  0  0  0  0  0  0  0  0  0  0  0
  -10.0460   19.6920   61.2510   O 0  0  0  0  0  0  0  0  0  0  0  0
  -11.1460   20.0610   62.0940   C 0  0  0  0  0  0  0  0  0  0  0  0
  -12.1900   20.4570   61.5530   O 0  0  0  0  0  0  0  0  0  0  0  0
  -10.9530   19.9740   63.5840   C 0  0  0  0  0  0  0  0  0  0  0  0
  -11.8090   18.8400   64.1840   C 0  0  0  0  0  0  0  0  0  0  0  0
  -13.1920   19.2620   64.2010   N 0  0  0  0  0  0  0  0  0  0  0  0
  -14.2670   18.3950   63.7470   C 0  0  0  0  0  0  0  0  0  0  0  0
  -11.7340   18.8160   65.7220   C 0  0  0  0  0  0  0  0  0  0  0  0
  -12.7430   19.8540   66.2540   C 0  0  0  0  0  0  0  0  0  0  0  0
  -13.4590   20.4290   65.0160   C 0  0  0  0  0  0  0  0  0  0  0  0
  -12.7230   21.6400   64.4100   C 0  0  0  0  0  0  0  0  0  0  0  0
  -11.2220   21.3460   64.2150   C 0  0  0  0  0  0  0  0  0  0  0  0
  -10.6710   22.2890   63.3320   O 0  0  0  0  0  0  0  0  0  0  0  0
   -9.9120   23.3200   63.9810   C 0  0  0  0  0  0  0  0  0  0  0  0
   -9.7320   23.2940   65.1880   O 0  0  0  0  0  0  0  0  0  0  0  0
   -9.4450   24.4380   63.1070   C 0  0  0  0  0  0  0  0  0  0  0  0
   -8.5990   25.4320   63.5990   C 0  0  0  0  0  0  0  0  0  0  0  0
   -8.2190   26.4610   62.7490   C 0  0  0  0  0  0  0  0  0  0  0  0
   -8.6730   26.5090   61.4290   C 0  0  0  0  0  0  0  0  0  0  0  0
   -9.5300   25.5310   60.9420   C 0  0  0  0  0  0  0  0  0  0  0  0
   -9.9130   24.4880   61.7880   C 0  0  0  0  0  0  0  0  0  0  0  0
  1  2  1  0  0  0  0
  2  3  1  0  0  0  0
  3  4  2  0  0  0  0
  3  5  1  0  0  0  0
  5  6  1  0  0  0  0
  5 13  1  0  0  0  0
  6  7  1  0  0  0  0
  6  9  1  0  0  0  0
  7  8  1  0  0  0  0
  7 11  1  0  0  0  0
  9 10  1  0  0  0  0
 10 11  1  0  0  0  0
 11 12  1  0  0  0  0
 12 13  1  0  0  0  0
 13 14  1  0  0  0  0
 14 15  1  0  0  0  0
 15 16  2  0  0  0  0
 15 17  1  0  0  0  0
 17 18  2  0  0  0  0
 17 22  1  0  0  0  0
 18 19  1  0  0  0  0
 19 20  2  0  0  0  0
 20 21  1  0  0  0  0
 21 22  2  0  0  0  0
M  END
>  <InstanceId>
2PGZ_COC_A_401

>  <ChemCompId>
COC

>  <PdbId>
2PGZ

>  <ChainId>
A

>  <ResidueNumber>
401

>  <InsertionCode>


>  <Model>
1

>  <AltIds>


>  <MissingHeavyAtoms>
0

>  <ObservedFormula>
C17 N O4

>  <Name>
COCAINE

>  <SystematicName>
methyl (1R,2R,3S,5S,8S)-8-methyl-3-(phenylcarbonyloxy)-8-azabicyclo[3.2.1]octane-2-carboxylate

>  <Synonyms>


>  <Type>
NON-POLYMER

>  <Formula>
C17 H21 N O4

>  <MolecularWeight>
303.353

>  <ModifiedDate>
2011-06-04

>  <Parent>


>  <OneLetterCode>


>  <SubcomponentList>


>  <AmbiguousFlag>
N

>  <InChI>
InChI=1S/C17H21NO4/c1-18-12-8-9-13(18)15(17(20)21-2)14(10-12)22-16(19)11-6-4-3-5-7-11/h3-7,12-15H,8-10H2,1-2H3/t12-,13+,14-,15+/m0/s1

>  <InChIKey>
ZPUCINDJVBIVPJ-LJISPDSOSA-N

>  <SMILES>
C[N@]1[C@H]2CC[C@@H]1[C@H]([C@H](C2)OC(=O)c3ccccc3)C(=O)OC

$$$$
