2HHN_GNQ_B_901
  RCSB PDB08012017083D
Coordinates from PDB:2HHN:B:901 Model:1 without hydrogens
 39 41  0  0  0  0            999 V2000
   34.1220   27.9400   19.3370   O 0  0  0  0  0  0  0  0  0  0  0  0
   33.9880   28.4750   18.0000   S 0  0  0  0  0  0  0  0  0  0  0  0
   34.0520   29.9080   17.8990   O 0  0  0  0  0  0  0  0  0  0  0  0
   32.6020   27.8750   17.2930   C 0  0  0  0  0  0  0  0  0  0  0  0
   31.3200   28.3370   17.9180   C 0  0  0  0  0  0  0  0  0  0  0  0
   30.7470   29.5180   17.4540   C 0  0  0  0  0  0  0  0  0  0  0  0
   29.5420   29.9710   17.9850   C 0  0  0  0  0  0  0  0  0  0  0  0
   28.9300   29.2080   18.9620   C 0  0  0  0  0  0  0  0  0  0  0  0
   29.5020   28.0230   19.4190   C 0  0  0  0  0  0  0  0  0  0  0  0
   30.7110   27.5610   18.8970   C 0  0  0  0  0  0  0  0  0  0  0  0
   35.2280   27.7880   17.1020   C 0  0  0  0  0  0  0  0  0  0  0  0
   35.5670   28.5690   15.8250   C 0  0  0  0  0  0  0  0  0  0  0  0
   34.5390   28.3870   14.7760   N 0  0  0  0  0  0  0  0  0  0  0  0
   34.6030   29.1490   13.6610   C 0  0  0  0  0  0  0  0  0  0  0  0
   35.5030   29.9920   13.5350   O 0  0  0  0  0  0  0  0  0  0  0  0
   33.7260   28.9910   12.6560   N 0  0  0  0  0  0  0  0  0  0  0  0
   33.8170   29.8720   11.4820   C 0  0  0  0  0  0  0  0  0  0  0  0
   33.5300   29.0900   10.2090   C 0  0  0  0  0  0  0  0  0  0  0  0
   32.2310   28.5240   10.3400   O 0  0  0  0  0  0  0  0  0  0  0  0
   32.2790   27.4860   11.3390   C 0  0  0  0  0  0  0  0  0  0  0  0
   32.5760   28.0830   12.7180   C 0  0  0  0  0  0  0  0  0  0  0  0
   36.8460   28.0560   15.2090   C 0  0  0  0  0  0  0  0  0  0  0  0
   36.8530   26.9900   14.6090   O 0  0  0  0  0  0  0  0  0  0  0  0
   37.9390   28.8090   15.3160   N 0  0  0  0  0  0  0  0  0  0  0  0
   39.1680   28.3760   14.6600   C 0  0  0  0  0  0  0  0  0  0  0  0
   39.2250   29.1560   13.3420   C 0  0  0  0  0  0  0  0  0  0  0  0
   40.3760   28.6320   15.5440   C 0  0  0  0  0  0  0  0  0  0  0  0
   41.2080   29.5600   14.7840   N 0  0  0  0  0  0  0  0  0  0  0  0
   42.5290   29.6450   15.0440   C 0  0  0  0  0  0  0  0  0  0  0  0
   42.9240   29.4380   16.3410   C 0  0  0  0  0  0  0  0  0  0  0  0
   44.2510   29.5220   16.6440   C 0  0  0  0  0  0  0  0  0  0  0  0
   43.4830   29.9300   14.0630   C 0  0  0  0  0  0  0  0  0  0  0  0
   44.8400   30.0120   14.4000   C 0  0  0  0  0  0  0  0  0  0  0  0
   45.2510   29.7860   15.7140   C 0  0  0  0  0  0  0  0  0  0  0  0
   46.5770   29.8530   16.1350   O 0  0  0  0  0  0  0  0  0  0  0  0
   47.6720   28.9570   15.8070   C 0  0  0  0  0  0  0  0  0  0  0  0
   47.5130   27.7430   16.3110   F 0  0  0  0  0  0  0  0  0  0  0  0
   47.7860   28.8460   14.4970   F 0  0  0  0  0  0  0  0  0  0  0  0
   48.8070   29.4480   16.2940   F 0  0  0  0  0  0  0  0  0  0  0  0
  1  2  2  0  0  0  0
  2  3  2  0  0  0  0
  2  4  1  0  0  0  0
  2 11  1  0  0  0  0
  4  5  1  0  0  0  0
  5  6  1  0  0  0  0
  5 10  2  0  0  0  0
  6  7  2  0  0  0  0
  7  8  1  0  0  0  0
  8  9  2  0  0  0  0
  9 10  1  0  0  0  0
 11 12  1  0  0  0  0
 12 13  1  0  0  0  0
 12 22  1  0  0  0  0
 13 14  1  0  0  0  0
 14 15  2  0  0  0  0
 14 16  1  0  0  0  0
 16 17  1  0  0  0  0
 16 21  1  0  0  0  0
 17 18  1  0  0  0  0
 18 19  1  0  0  0  0
 19 20  1  0  0  0  0
 20 21  1  0  0  0  0
 22 23  2  0  0  0  0
 22 24  1  0  0  0  0
 24 25  1  0  0  0  0
 25 26  1  0  0  0  0
 25 27  1  0  0  0  0
 27 28  1  0  0  0  0
 28 29  1  0  0  0  0
 29 30  2  0  0  0  0
 29 32  1  0  0  0  0
 30 31  1  0  0  0  0
 31 34  2  0  0  0  0
 32 33  2  0  0  0  0
 33 34  1  0  0  0  0
 34 35  1  0  0  0  0
 35 36  1  0  0  0  0
 36 37  1  0  0  0  0
 36 38  1  0  0  0  0
 36 39  1  0  0  0  0
M  END
>  <InstanceId>
2HHN_GNQ_B_901

>  <ChemCompId>
GNQ

>  <PdbId>
2HHN

>  <ChainId>
B

>  <ResidueNumber>
901

>  <InsertionCode>


>  <Model>
1

>  <AltIds>


>  <MissingHeavyAtoms>
0

>  <ObservedFormula>
C25 N4 O6 S F3

>  <Name>
N-[(1R)-1-[(BENZYLSULFONYL)METHYL]-2-{[(1S)-1-METHYL-2-{[4-(TRIFLUOROMETHOXY)PHENYL]AMINO}ETHYL]AMINO}-2-OXOETHYL]MORPHOLINE-4-CARBOXAMIDE

>  <SystematicName>
N-[(2R)-1-oxo-3-(phenylmethylsulfonyl)-1-[[(2S)-1-[[4-(trifluoromethoxy)phenyl]amino]propan-2-yl]amino]propan-2-yl]morpholine-4-carboxamide

>  <Synonyms>


>  <Type>
NON-POLYMER

>  <Formula>
C25 H31 F3 N4 O6 S

>  <MolecularWeight>
572.597

>  <ModifiedDate>
2011-06-04

>  <Parent>


>  <OneLetterCode>


>  <SubcomponentList>


>  <AmbiguousFlag>
N

>  <InChI>
InChI=1S/C25H31F3N4O6S/c1-18(15-29-20-7-9-21(10-8-20)38-25(26,27)28)30-23(33)22(31-24(34)32-11-13-37-14-12-32)17-39(35,36)16-19-5-3-2-4-6-19/h2-10,18,22,29H,11-17H2,1H3,(H,30,33)(H,31,34)/t18-,22-/m0/s1

>  <InChIKey>
LIOLGHUQUQDMDF-AVRDEDQJSA-N

>  <SMILES>
C[C@@H](CNc1ccc(cc1)OC(F)(F)F)NC(=O)[C@H](CS(=O)(=O)Cc2ccccc2)NC(=O)N3CCOCC3

$$$$
