3VFA_031_A_201
  RCSB PDB08012020473D
Coordinates from PDB:3VFA:A:201 Model:1 without hydrogens
 42 46  0  0  0  0            999 V2000
   21.7070   29.0210   14.6010   O 0  0  0  0  0  0  0  0  0  0  0  0
   23.0980   28.7120   14.7520   C 0  0  0  0  0  0  0  0  0  0  0  0
   20.9740   27.8870   14.8060   C 0  0  0  0  0  0  0  0  0  0  0  0
   21.5520   26.7560   15.3940   C 0  0  0  0  0  0  0  0  0  0  0  0
   20.7770   25.6310   15.6430   C 0  0  0  0  0  0  0  0  0  0  0  0
   19.4240   25.6390   15.3270   C 0  0  0  0  0  0  0  0  0  0  0  0
   18.8700   26.7590   14.7400   C 0  0  0  0  0  0  0  0  0  0  0  0
   19.6350   27.8760   14.4500   C 0  0  0  0  0  0  0  0  0  0  0  0
   18.3970   24.2640   15.7110   S 0  0  0  0  0  0  0  0  0  0  0  0
   17.3610   24.0920   14.6690   O 0  0  0  0  0  0  0  0  0  0  0  0
   19.3320   23.1160   15.9280   O 0  0  0  0  0  0  0  0  0  0  0  0
   17.7180   24.4800   17.1740   N 0  0  0  0  0  0  0  0  0  0  0  0
   18.6790   24.8310   18.2070   C 0  0  0  0  0  0  0  0  0  0  0  0
   18.0880   24.5120   19.5820   C 0  0  0  0  0  0  0  0  0  0  0  0
   18.0650   23.0230   19.8540   C 0  0  0  0  0  0  0  0  0  0  0  0
   19.0130   25.0900   20.5690   N 0  0  0  0  0  0  0  0  0  0  0  0
   19.7760   24.1650   21.0940   C 0  0  0  0  0  0  0  0  0  0  0  0
   20.6630   24.4150   21.8860   O 0  0  0  0  0  0  0  0  0  0  0  0
   19.3920   22.7810   20.5960   C 0  0  0  0  0  0  0  0  0  0  0  0
   16.4900   25.2440   17.2520   C 0  0  0  0  0  0  0  0  0  0  0  0
   15.3610   24.3450   17.7440   C 0  0  0  0  0  0  0  0  0  0  0  0
   14.1850   25.0620   18.0660   O 0  0  0  0  0  0  0  0  0  0  0  0
   15.0110   23.2280   16.7770   C 0  0  0  0  0  0  0  0  0  0  0  0
   14.1150   22.2800   17.4510   N 0  0  0  0  0  0  0  0  0  0  0  0
   14.4390   21.0990   17.9620   C 0  0  0  0  0  0  0  0  0  0  0  0
   15.5870   20.6170   17.9740   O 0  0  0  0  0  0  0  0  0  0  0  0
   13.3900   20.4240   18.5290   O 0  0  0  0  0  0  0  0  0  0  0  0
   13.6970   18.2050   17.5390   C 0  0  0  0  0  0  0  0  0  0  0  0
   13.7100   19.0490   18.8250   C 0  0  0  0  0  0  0  0  0  0  0  0
   12.5230   18.5190   19.6260   C 0  0  0  0  0  0  0  0  0  0  0  0
   11.4840   18.2120   18.5630   C 0  0  0  0  0  0  0  0  0  0  0  0
   10.6830   19.3320   18.2040   O 0  0  0  0  0  0  0  0  0  0  0  0
   10.6790   19.5450   16.7970   C 0  0  0  0  0  0  0  0  0  0  0  0
   11.5250   18.4550   16.1740   C 0  0  0  0  0  0  0  0  0  0  0  0
   12.2570   17.7850   17.3360   C 0  0  0  0  0  0  0  0  0  0  0  0
   14.4120   23.7000   15.4500   C 0  0  0  0  0  0  0  0  0  0  0  0
   12.7160   22.1810   14.2770   C 0  0  0  0  0  0  0  0  0  0  0  0
   12.3520   21.0390   13.5580   C 0  0  0  0  0  0  0  0  0  0  0  0
   13.3520   20.3130   12.9310   C 0  0  0  0  0  0  0  0  0  0  0  0
   14.6890   20.6350   13.1700   C 0  0  0  0  0  0  0  0  0  0  0  0
   15.0280   21.7320   13.9770   C 0  0  0  0  0  0  0  0  0  0  0  0
   14.0370   22.5090   14.5580   C 0  0  0  0  0  0  0  0  0  0  0  0
  2  1  1  0  0  0  0
  3  1  1  0  0  0  0
  4  3  2  0  0  0  0
  3  8  1  0  0  0  0
  5  4  1  0  0  0  0
  5  6  2  0  0  0  0
  9  6  1  0  0  0  0
  6  7  1  0  0  0  0
  7  8  2  0  0  0  0
 11  9  2  0  0  0  0
 12  9  1  0  0  0  0
  9 10  2  0  0  0  0
 13 12  1  0  0  0  0
 12 20  1  0  0  0  0
 14 13  1  0  0  0  0
 16 14  1  0  0  0  0
 15 14  1  0  0  0  0
 19 15  1  0  0  0  0
 17 16  1  0  0  0  0
 18 17  2  0  0  0  0
 17 19  1  0  0  0  0
 21 20  1  0  0  0  0
 21 23  1  0  0  0  0
 21 22  1  0  0  0  0
 24 23  1  0  0  0  0
 23 36  1  0  0  0  0
 25 24  1  0  0  0  0
 26 25  2  0  0  0  0
 27 25  1  0  0  0  0
 29 27  1  0  0  0  0
 29 28  1  0  0  0  0
 28 35  1  0  0  0  0
 30 29  1  0  0  0  0
 30 31  1  0  0  0  0
 31 35  1  0  0  0  0
 31 32  1  0  0  0  0
 32 33  1  0  0  0  0
 34 33  1  0  0  0  0
 35 34  1  0  0  0  0
 36 42  1  0  0  0  0
 42 37  2  0  0  0  0
 37 38  1  0  0  0  0
 39 38  2  0  0  0  0
 40 39  1  0  0  0  0
 41 40  2  0  0  0  0
 41 42  1  0  0  0  0
M  END
>  <InstanceId>
3VFA_031_A_201

>  <ChemCompId>
031

>  <PdbId>
3VFA

>  <ChainId>
A

>  <ResidueNumber>
201

>  <InsertionCode>


>  <Model>
1

>  <AltIds>


>  <MissingHeavyAtoms>
0

>  <ObservedFormula>
C30 N3 O8 S

>  <Name>
(3aS,5R,6aR)-hexahydro-2H-cyclopenta[b]furan-5-yl [(1S,2R)-1-benzyl-2-hydroxy-3-([(4-methoxyphenyl)sulfonyl]{[(2R)-5-oxopyrrolidin-2-yl]methyl}amino)propyl]carbamate

>  <SystematicName>
[(3aS,5R,6aR)-3,3a,4,5,6,6a-hexahydro-2H-cyclopenta[b]furan-5-yl] N-[(2S,3R)-3-hydroxy-4-[(4-methoxyphenyl)sulfonyl-[[(2R)-5-oxopyrrolidin-2-yl]methyl]amino]-1-phenyl-butan-2-yl]carbamate

>  <Synonyms>


>  <Type>
NON-POLYMER

>  <Formula>
C30 H39 N3 O8 S

>  <MolecularWeight>
601.711

>  <ModifiedDate>
2011-06-04

>  <Parent>


>  <OneLetterCode>


>  <SubcomponentList>


>  <AmbiguousFlag>
N

>  <InChI>
InChI=1S/C30H39N3O8S/c1-39-23-8-10-25(11-9-23)42(37,38)33(18-22-7-12-29(35)31-22)19-27(34)26(15-20-5-3-2-4-6-20)32-30(36)41-24-16-21-13-14-40-28(21)17-24/h2-6,8-11,21-22,24,26-28,34H,7,12-19H2,1H3,(H,31,35)(H,32,36)/t21-,22+,24+,26-,27+,28+/m0/s1

>  <InChIKey>
RPIALZPTIFOQGC-CXLNPQPMSA-N

>  <SMILES>
COc1ccc(cc1)S(=O)(=O)[N@@](C[C@H]2CCC(=O)N2)C[C@H]([C@H](Cc3ccccc3)NC(=O)O[C@@H]4C[C@@H]5CCO[C@@H]5C4)O

$$$$
