4CPY_G39_A_1470
  RCSB PDB08012021243D
Coordinates from PDB:4CPY:A:1470 Model:1 without hydrogens
 20 20  0  0  0  0            999 V2000
  -22.7950   90.8250   11.2080   C 0  0  0  0  0  0  0  0  0  0  0  0
  -24.0350   90.6530   11.2010   O 0  0  0  0  0  0  0  0  0  0  0  0
  -22.1980   91.2210   10.1760   O 0  0  0  0  0  0  0  0  0  0  0  0
  -22.0050   90.5670   12.4320   C 0  0  0  0  0  0  0  0  0  0  0  0
  -22.6660   90.0040   13.6700   C 0  0  0  0  0  0  0  0  0  0  0  0
  -21.6610   89.2350   14.5440   C 0  0  0  0  0  0  0  0  0  0  0  0
  -20.4150   90.0820   14.8130   C 0  0  0  0  0  0  0  0  0  0  0  0
  -19.4840   89.3710   15.6730   N 0  0  0  0  0  0  0  0  0  0  0  0
  -19.0250   89.7990   16.8600   C 0  0  0  0  0  0  0  0  0  0  0  0
  -19.2910   90.8710   17.3600   O 0  0  0  0  0  0  0  0  0  0  0  0
  -18.0870   88.8760   17.5750   C 0  0  0  0  0  0  0  0  0  0  0  0
  -19.7070   90.3900   13.5060   C 0  0  0  0  0  0  0  0  0  0  0  0
  -20.6720   90.7880   12.3980   C 0  0  0  0  0  0  0  0  0  0  0  0
  -18.7660   91.4500   13.7370   O 0  0  0  0  0  0  0  0  0  0  0  0
  -17.4130   91.1580   13.3540   C 0  0  0  0  0  0  0  0  0  0  0  0
  -17.1820   91.4510   11.8700   C 0  0  0  0  0  0  0  0  0  0  0  0
  -16.4790   91.9870   14.2240   C 0  0  0  0  0  0  0  0  0  0  0  0
  -17.1140   93.2790   14.6950   C 0  0  0  0  0  0  0  0  0  0  0  0
  -17.8350   92.7560   11.4600   C 0  0  0  0  0  0  0  0  0  0  0  0
  -22.2910   88.8690   15.7980   N 0  0  0  0  0  0  0  0  0  0  0  0
  1  2  2  0  0  0  0
  1  3  1  0  0  0  0
  1  4  1  0  0  0  0
  4  5  1  0  0  0  0
  4 13  2  0  0  0  0
  5  6  1  0  0  0  0
  6  7  1  0  0  0  0
  6 20  1  0  0  0  0
  7  8  1  0  0  0  0
  7 12  1  0  0  0  0
  8  9  1  0  0  0  0
  9 10  2  0  0  0  0
  9 11  1  0  0  0  0
 12 13  1  0  0  0  0
 12 14  1  0  0  0  0
 14 15  1  0  0  0  0
 15 16  1  0  0  0  0
 15 17  1  0  0  0  0
 16 19  1  0  0  0  0
 17 18  1  0  0  0  0
M  END
>  <InstanceId>
4CPY_G39_A_1470

>  <ChemCompId>
G39

>  <PdbId>
4CPY

>  <ChainId>
A

>  <ResidueNumber>
1470

>  <InsertionCode>


>  <Model>
1

>  <AltIds>


>  <MissingHeavyAtoms>
0

>  <ObservedFormula>
C14 N2 O4

>  <Name>
(3R,4R,5S)-4-(acetylamino)-5-amino-3-(pentan-3-yloxy)cyclohex-1-ene-1-carboxylic acid

>  <SystematicName>
(3R,4R,5S)-4-acetamido-5-azanyl-3-pentan-3-yloxy-cyclohexene-1-carboxylic acid

>  <Synonyms>
Oseltamivir carboxylate

>  <Type>
NON-POLYMER

>  <Formula>
C14 H24 N2 O4

>  <MolecularWeight>
284.351

>  <ModifiedDate>
2020-06-17

>  <Parent>


>  <OneLetterCode>


>  <SubcomponentList>


>  <AmbiguousFlag>
N

>  <InChI>
InChI=1S/C14H24N2O4/c1-4-10(5-2)20-12-7-9(14(18)19)6-11(15)13(12)16-8(3)17/h7,10-13H,4-6,15H2,1-3H3,(H,16,17)(H,18,19)/t11-,12+,13+/m0/s1

>  <InChIKey>
NENPYTRHICXVCS-YNEHKIRRSA-N

>  <SMILES>
CCC(CC)O[C@@H]1C=C(C[C@@H]([C@H]1NC(=O)C)N)C(=O)O

$$$$
