4NBN_2J7_B_401
  RCSB PDB08012022373D
Coordinates from PDB:4NBN:B:401 Model:1 without hydrogens
 24 26  0  0  0  0            999 V2000
   22.5540   29.0250    5.9220   C 0  0  0  0  0  0  0  0  0  0  0  0
   23.9850   28.9430    5.5350   N 0  0  0  0  0  0  0  0  0  0  0  0
   25.0770   29.0160    6.4240   C 0  0  0  0  0  0  0  0  0  0  0  0
   20.8490   32.9860    5.6610   C 0  0  0  0  0  0  0  0  0  0  0  0
   26.3680   28.7770    5.9520   C 0  0  0  0  0  0  0  0  0  0  0  0
   22.0470   31.2900    6.9030   C 0  0  0  0  0  0  0  0  0  0  0  0
   21.3000   30.8380    4.6660   C 0  0  0  0  0  0  0  0  0  0  0  0
   20.7560   32.1160    4.5810   C 0  0  0  0  0  0  0  0  0  0  0  0
   21.5030   32.5740    6.8210   C 0  0  0  0  0  0  0  0  0  0  0  0
   21.9620   30.4230    5.8230   C 0  0  0  0  0  0  0  0  0  0  0  0
   27.4700   28.8210    6.8370   C 0  0  0  0  0  0  0  0  0  0  0  0
   27.2400   29.0770    8.1270   N 0  0  0  0  0  0  0  0  0  0  0  0
   25.9880   29.3050    8.5340   C 0  0  0  0  0  0  0  0  0  0  0  0
   24.9360   29.2790    7.7300   N 0  0  0  0  0  0  0  0  0  0  0  0
   28.7790   28.6010    6.3580   N 0  0  0  0  0  0  0  0  0  0  0  0
   30.0180   28.7590    7.1630   C 0  0  0  0  0  0  0  0  0  0  0  0
   30.6290   27.4600    7.6520   C 0  0  0  0  0  0  0  0  0  0  0  0
   31.5390   26.7380    6.8940   C 0  0  0  0  0  0  0  0  0  0  0  0
   32.0650   25.5510    7.3730   C 0  0  0  0  0  0  0  0  0  0  0  0
   31.6820   25.0600    8.6230   C 0  0  0  0  0  0  0  0  0  0  0  0
   30.7720   25.7800    9.3890   C 0  0  0  0  0  0  0  0  0  0  0  0
   30.2510   26.9800    8.8990   C 0  0  0  0  0  0  0  0  0  0  0  0
   29.3490   27.7000    9.6210   O 0  0  0  0  0  0  0  0  0  0  0  0
   22.6960   30.8930    8.0320   O 0  0  0  0  0  0  0  0  0  0  0  0
  8  7  2  0  0  0  0
  8  4  1  0  0  0  0
  7 10  1  0  0  0  0
  2  1  1  0  0  0  0
  2  3  1  0  0  0  0
  4  9  2  0  0  0  0
 10  1  1  0  0  0  0
 10  6  2  0  0  0  0
  5  3  2  0  0  0  0
  5 11  1  0  0  0  0
 15 11  1  0  0  0  0
 15 16  1  0  0  0  0
  3 14  1  0  0  0  0
  9  6  1  0  0  0  0
 11 12  2  0  0  0  0
 18 19  2  0  0  0  0
 18 17  1  0  0  0  0
  6 24  1  0  0  0  0
 16 17  1  0  0  0  0
 19 20  1  0  0  0  0
 17 22  2  0  0  0  0
 14 13  2  0  0  0  0
 12 13  1  0  0  0  0
 20 21  2  0  0  0  0
 22 21  1  0  0  0  0
 22 23  1  0  0  0  0
M  END
>  <InstanceId>
4NBN_2J7_B_401

>  <ChemCompId>
2J7

>  <PdbId>
4NBN

>  <ChainId>
B

>  <ResidueNumber>
401

>  <InsertionCode>


>  <Model>
1

>  <AltIds>


>  <MissingHeavyAtoms>
0

>  <ObservedFormula>
C18 N4 O2

>  <Name>
2,2'-[pyrimidine-4,6-diylbis(iminomethanediyl)]diphenol

>  <SystematicName>
2-[[[6-[(2-hydroxyphenyl)methylamino]pyrimidin-4-yl]amino]methyl]phenol

>  <Synonyms>


>  <Type>
NON-POLYMER

>  <Formula>
C18 H18 N4 O2

>  <MolecularWeight>
322.361

>  <ModifiedDate>
2013-12-13

>  <Parent>


>  <OneLetterCode>


>  <SubcomponentList>


>  <AmbiguousFlag>
N

>  <InChI>
InChI=1S/C18H18N4O2/c23-15-7-3-1-5-13(15)10-19-17-9-18(22-12-21-17)20-11-14-6-2-4-8-16(14)24/h1-9,12,23-24H,10-11H2,(H2,19,20,21,22)

>  <InChIKey>
XTLGIBKGPXLOFA-UHFFFAOYSA-N

>  <SMILES>
c1ccc(c(c1)CNc2cc(ncn2)NCc3ccccc3O)O

$$$$
