2IHJ_CSF_A_1741
  RCSB PDB08012017133D
Coordinates from PDB:2IHJ:A:1741 Model:1 without hydrogens
 42 44  0  0  0  0            999 V2000
   10.7400    4.2170    1.3480   C 0  0  0  0  0  0  0  0  0  0  0  0
   11.5540    3.5610    2.4760   C 0  0  0  0  0  0  0  0  0  0  0  0
   10.1960    1.5070    2.3380   C 0  0  0  0  0  0  0  0  0  0  0  0
    9.5050    2.1150    1.2340   O 0  0  0  0  0  0  0  0  0  0  0  0
   10.2320    3.0770    0.4460   C 0  0  0  0  0  0  0  0  0  0  0  0
   10.6380    2.6260    3.2800   C 0  0  0  0  0  0  0  0  0  0  0  0
   12.2400    4.4780    3.3420   O 0  0  0  0  0  0  0  0  0  0  0  0
   11.6580    5.0140    0.5380   N 0  0  0  0  0  0  0  0  0  0  0  0
    9.3440    3.4930   -0.7350   C 0  0  0  0  0  0  0  0  0  0  0  0
    8.8510    2.2690   -1.5300   C 0  0  0  0  0  0  0  0  0  0  0  0
    7.8930    2.6110   -2.6750   C 0  0  0  0  0  0  0  0  0  0  0  0
    8.5920    3.3230   -3.7050   O 0  0  0  0  0  0  0  0  0  0  0  0
    9.9650    1.5410   -2.0680   O 0  0  0  0  0  0  0  0  0  0  0  0
    8.2280    4.2380   -0.2390   O 0  0  0  0  0  0  0  0  0  0  0  0
    9.2320    0.5710    3.0500   C 0  0  0  0  0  0  0  0  0  0  0  0
    9.5930   -0.0380    4.0720   O 0  0  0  0  0  0  0  0  0  0  0  0
    8.0730    0.4270    2.6050   O 0  0  0  0  0  0  0  0  0  0  0  0
   11.4190    0.8330    1.9460   O 0  0  0  0  0  0  0  0  0  0  0  0
   12.8220    0.4600   -0.1220   O 0  0  0  0  0  0  0  0  0  0  0  0
   11.7120   -5.4310    1.2650   N 0  0  0  0  0  0  0  0  0  0  0  0
   11.7390   -6.7970    0.8930   C 0  0  0  0  0  0  0  0  0  0  0  0
   11.5090   -7.1500   -0.4000   N 0  0  0  0  0  0  0  0  0  0  0  0
   11.2430   -6.2150   -1.3520   C 0  0  0  0  0  0  0  0  0  0  0  0
   11.2170   -4.8640   -1.0010   C 0  0  0  0  0  0  0  0  0  0  0  0
   11.4470   -4.5020    0.3230   C 0  0  0  0  0  0  0  0  0  0  0  0
   13.7930   -3.5750    2.8440   C 0  0  0  0  0  0  0  0  0  0  0  0
   13.4320   -5.0350    3.0230   C 0  0  0  0  0  0  0  0  0  0  0  0
   11.9500   -5.0590    2.6820   C 0  0  0  0  0  0  0  0  0  0  0  0
   11.4630   -3.7410    2.9930   O 0  0  0  0  0  0  0  0  0  0  0  0
   12.5460   -2.8870    3.3790   C 0  0  0  0  0  0  0  0  0  0  0  0
   11.6790   -0.1430    0.6630   P 0  0  0  0  0  0  0  0  0  0  0  0
   12.2660   -1.4490    1.4100   O 0  0  0  0  0  0  0  0  0  0  0  0
   12.3600   -1.4680    2.8400   C 0  0  0  0  0  0  0  0  0  0  0  0
   14.9810   -3.2050    3.5510   O 0  0  0  0  0  0  0  0  0  0  0  0
   13.5800   -5.4130    4.3970   O 0  0  0  0  0  0  0  0  0  0  0  0
   11.0220   -6.5810   -2.6410   N 0  0  0  0  0  0  0  0  0  0  0  0
   11.9760   -7.6670    1.7700   O 0  0  0  0  0  0  0  0  0  0  0  0
   10.3510   -0.4210    0.0390   O 0  0  0  0  0  0  0  0  0  0  0  0
   11.3780    6.2280    0.0410   C 0  0  0  0  0  0  0  0  0  0  0  0
   10.3130    6.8050    0.2190   O 0  0  0  0  0  0  0  0  0  0  0  0
   12.4740    6.8520   -0.7750   C 0  0  0  0  0  0  0  0  0  0  0  0
    9.5330    3.2840    3.7900   F 0  0  0  0  0  0  0  0  0  0  0  0
  1  2  1  0  0  0  0
  1  5  1  0  0  0  0
  1  8  1  0  0  0  0
  2  6  1  0  0  0  0
  2  7  1  0  0  0  0
  3  4  1  0  0  0  0
  3  6  1  0  0  0  0
  3 15  1  0  0  0  0
  3 18  1  0  0  0  0
  4  5  1  0  0  0  0
  5  9  1  0  0  0  0
  6 42  1  0  0  0  0
  8 39  1  0  0  0  0
  9 10  1  0  0  0  0
  9 14  1  0  0  0  0
 10 11  1  0  0  0  0
 10 13  1  0  0  0  0
 11 12  1  0  0  0  0
 15 16  1  0  0  0  0
 15 17  2  0  0  0  0
 18 31  1  0  0  0  0
 19 31  2  0  0  0  0
 20 21  1  0  0  0  0
 20 25  1  0  0  0  0
 20 28  1  0  0  0  0
 21 22  1  0  0  0  0
 21 37  2  0  0  0  0
 22 23  2  0  0  0  0
 23 24  1  0  0  0  0
 23 36  1  0  0  0  0
 24 25  2  0  0  0  0
 26 27  1  0  0  0  0
 26 30  1  0  0  0  0
 26 34  1  0  0  0  0
 27 28  1  0  0  0  0
 27 35  1  0  0  0  0
 28 29  1  0  0  0  0
 29 30  1  0  0  0  0
 30 33  1  0  0  0  0
 31 32  1  0  0  0  0
 31 38  1  0  0  0  0
 32 33  1  0  0  0  0
 39 40  2  0  0  0  0
 39 41  1  0  0  0  0
M  END
>  <InstanceId>
2IHJ_CSF_A_1741

>  <ChemCompId>
CSF

>  <PdbId>
2IHJ

>  <ChainId>
A

>  <ResidueNumber>
1741

>  <InsertionCode>


>  <Model>
1

>  <AltIds>


>  <MissingHeavyAtoms>
0

>  <ObservedFormula>
C20 N4 O16 P F

>  <Name>
CYTIDINE-5'-MONOPHOSPHATE-3-FLUORO-N-ACETYL-NEURAMINIC ACID

>  <SystematicName>
(3R,4R,5R,6R)-5-acetamido-2-[[(2R,3S,4R,5R)-5-(4-amino-2-oxo-pyrimidin-1-yl)-3,4-dihydroxy-oxolan-2-yl]methoxy-hydroxy-phosphoryl]oxy-3-fluoro-4-hydroxy-6-[(1R,2R)-1,2,3-trihydroxypropyl]oxane-2-carboxylic acid

>  <Synonyms>
CMP-3FNEUAC

>  <Type>
RNA LINKING

>  <Formula>
C20 H30 F N4 O16 P

>  <MolecularWeight>
632.442

>  <ModifiedDate>
2020-06-17

>  <Parent>
C

>  <OneLetterCode>
C

>  <SubcomponentList>


>  <AmbiguousFlag>
N

>  <InChI>
InChI=1S/C20H30FN4O16P/c1-6(27)23-10-13(31)16(21)20(18(33)34,40-15(10)11(29)7(28)4-26)41-42(36,37)38-5-8-12(30)14(32)17(39-8)25-3-2-9(22)24-19(25)35/h2-3,7-8,10-17,26,28-32H,4-5H2,1H3,(H,23,27)(H,33,34)(H,36,37)(H2,22,24,35)/t7-,8-,10-,11-,12-,13-,14-,15-,16-,17-,20-/m1/s1

>  <InChIKey>
HNJLGUNKGJTPBF-JTKQZVQZSA-N

>  <SMILES>
CC(=O)N[C@@H]1[C@H]([C@H](C(O[C@H]1[C@@H]([C@@H](CO)O)O)(C(=O)O)O[P@](=O)(O)OC[C@@H]2[C@H]([C@H]([C@@H](O2)N3C=CC(=NC3=O)N)O)O)F)O

$$$$
