4KIF_PPY_A_501
  RCSB PDB08012022153D
Coordinates from PDB:4KIF:A:501 Model:1 without hydrogens
 12 12  0  0  0  0            999 V2000
    9.0970  101.9340  159.9540   C 0  0  0  0  0  0  0  0  0  0  0  0
    7.8420  102.0370  159.8100   O 0  0  0  0  0  0  0  0  0  0  0  0
    9.6210  102.3660  160.9790   O 0  0  0  0  0  0  0  0  0  0  0  0
   10.0350  101.3320  159.0030   C 0  0  0  0  0  0  0  0  0  0  0  0
    9.6660  100.9540  157.9320   O 0  0  0  0  0  0  0  0  0  0  0  0
   11.4580  101.2120  159.5000   C 0  0  0  0  0  0  0  0  0  0  0  0
   12.5240  100.4680  158.7300   C 0  0  0  0  0  0  0  0  0  0  0  0
   13.6600  100.1020  159.4600   C 0  0  0  0  0  0  0  0  0  0  0  0
   14.7170   99.4080  158.8580   C 0  0  0  0  0  0  0  0  0  0  0  0
   14.6360   99.0610  157.5160   C 0  0  0  0  0  0  0  0  0  0  0  0
   13.5110   99.4190  156.7820   C 0  0  0  0  0  0  0  0  0  0  0  0
   12.4630  100.1220  157.3730   C 0  0  0  0  0  0  0  0  0  0  0  0
  1  2  2  0  0  0  0
  1  3  1  0  0  0  0
  1  4  1  0  0  0  0
  4  5  2  0  0  0  0
  4  6  1  0  0  0  0
  6  7  1  0  0  0  0
  7  8  2  0  0  0  0
  7 12  1  0  0  0  0
  8  9  1  0  0  0  0
  9 10  2  0  0  0  0
 10 11  1  0  0  0  0
 11 12  2  0  0  0  0
M  END
>  <InstanceId>
4KIF_PPY_A_501

>  <ChemCompId>
PPY

>  <PdbId>
4KIF

>  <ChainId>
A

>  <ResidueNumber>
501

>  <InsertionCode>


>  <Model>
1

>  <AltIds>


>  <MissingHeavyAtoms>
0

>  <ObservedFormula>
C9 O3

>  <Name>
3-PHENYLPYRUVIC ACID

>  <SystematicName>
2-oxo-3-phenyl-propanoic acid

>  <Synonyms>


>  <Type>
NON-POLYMER

>  <Formula>
C9 H8 O3

>  <MolecularWeight>
164.158

>  <ModifiedDate>
2011-06-04

>  <Parent>


>  <OneLetterCode>


>  <SubcomponentList>


>  <AmbiguousFlag>
N

>  <InChI>
InChI=1S/C9H8O3/c10-8(9(11)12)6-7-4-2-1-3-5-7/h1-5H,6H2,(H,11,12)

>  <InChIKey>
BTNMPGBKDVTSJY-UHFFFAOYSA-N

>  <SMILES>
c1ccc(cc1)CC(=O)C(=O)O

$$$$
