6G35_EKK_A_802
  RCSB PDB08022004453D
Coordinates from PDB:6G35:A:802 Model:1 without hydrogens
 20 22  0  0  0  0            999 V2000
   65.1990   31.3260    9.8450   O 0  0  0  0  0  0  0  0  0  0  0  0
   64.1740   29.6470   13.1100   C 0  0  0  0  0  0  0  0  0  0  0  0
   65.8960   28.6620   11.5520   C 0  0  0  0  0  0  0  0  0  0  0  0
   66.8070   27.6590   11.5900   C 0  0  0  0  0  0  0  0  0  0  0  0
   68.4350   25.3180   13.0040   N 0  0  0  0  0  0  0  0  0  0  0  0
   66.7560   27.0510   12.8710   C 0  0  0  0  0  0  0  0  0  0  0  0
   67.4230   26.0020   13.5420   C 0  0  0  0  0  0  0  0  0  0  0  0
   67.0380   25.7160   14.8010   N 0  0  0  0  0  0  0  0  0  0  0  0
   66.0630   26.4440   15.3500   C 0  0  0  0  0  0  0  0  0  0  0  0
   65.7560   27.7390   13.5710   C 0  0  0  0  0  0  0  0  0  0  0  0
   65.3820   27.4650   14.8260   N 0  0  0  0  0  0  0  0  0  0  0  0
   67.9170   27.0770   10.1950  Br 0  0  0  0  0  0  0  0  0  0  0  0
   65.2390   28.7170   12.7560   N 0  0  0  0  0  0  0  0  0  0  0  0
   64.6650   30.8650   13.8920   C 0  0  0  0  0  0  0  0  0  0  0  0
   63.6430   31.2750   14.7960   O 0  0  0  0  0  0  0  0  0  0  0  0
   64.9200   31.8630   12.7600   C 0  0  0  0  0  0  0  0  0  0  0  0
   64.8790   33.2210   13.2030   O 0  0  0  0  0  0  0  0  0  0  0  0
   63.5950   30.1290   11.9110   O 0  0  0  0  0  0  0  0  0  0  0  0
   63.7800   31.5560   11.8050   C 0  0  0  0  0  0  0  0  0  0  0  0
   64.0170   31.9210   10.3580   C 0  0  0  0  0  0  0  0  0  0  0  0
  1 20  1  0  0  0  0
 12  4  1  0  0  0  0
 20 19  1  0  0  0  0
  3  4  2  0  0  0  0
  3 13  1  0  0  0  0
  4  6  1  0  0  0  0
 19 18  1  0  0  0  0
 19 16  1  0  0  0  0
 18  2  1  0  0  0  0
 13  2  1  0  0  0  0
 13 10  1  0  0  0  0
 16 17  1  0  0  0  0
 16 14  1  0  0  0  0
  6  7  2  0  0  0  0
  6 10  1  0  0  0  0
  5  7  1  0  0  0  0
  2 14  1  0  0  0  0
  7  8  1  0  0  0  0
 10 11  2  0  0  0  0
 14 15  1  0  0  0  0
  8  9  2  0  0  0  0
 11  9  1  0  0  0  0
M  END
>  <InstanceId>
6G35_EKK_A_802

>  <ChemCompId>
EKK

>  <PdbId>
6G35

>  <ChainId>
A

>  <ResidueNumber>
802

>  <InsertionCode>


>  <Model>
1

>  <AltIds>


>  <MissingHeavyAtoms>
0

>  <ObservedFormula>
C11 N4 O4 Br

>  <Name>
5-bromotubercidin

>  <SystematicName>
(2~{R},3~{R},4~{S},5~{R})-2-(4-azanyl-5-bromanyl-pyrrolo[2,3-d]pyrimidin-7-yl)-5-(hydroxymethyl)oxolane-3,4-diol

>  <Synonyms>


>  <Type>
NON-POLYMER

>  <Formula>
C11 H13 Br N4 O4

>  <MolecularWeight>
345.149

>  <ModifiedDate>
2018-04-13

>  <Parent>


>  <OneLetterCode>


>  <SubcomponentList>


>  <AmbiguousFlag>
N

>  <InChI>
InChI=1S/C11H13BrN4O4/c12-4-1-16(10-6(4)9(13)14-3-15-10)11-8(19)7(18)5(2-17)20-11/h1,3,5,7-8,11,17-19H,2H2,(H2,13,14,15)/t5-,7-,8-,11-/m1/s1

>  <InChIKey>
ZWTPRQXZXQEKFT-IOSLPCCCSA-N

>  <SMILES>
c1c(c2c(ncnc2n1[C@H]3[C@@H]([C@@H]([C@H](O3)CO)O)O)N)Br

$$$$
