1JGL_EST_L_911
  RCSB PDB08012015133D
Coordinates from PDB:1JGL:L:911 Model:1 without hydrogens
 20 23  0  0  0  0            999 V2000
   43.1480   25.8150   67.9760   C 0  0  0  0  0  0  0  0  0  0  0  0
   44.5470   25.7240   68.2820   C 0  0  0  0  0  0  0  0  0  0  0  0
   45.3400   24.6720   67.7000   C 0  0  0  0  0  0  0  0  0  0  0  0
   46.6790   24.5930   68.0030   O 0  0  0  0  0  0  0  0  0  0  0  0
   44.7490   23.7110   66.8090   C 0  0  0  0  0  0  0  0  0  0  0  0
   43.3380   23.7840   66.4790   C 0  0  0  0  0  0  0  0  0  0  0  0
   42.7360   22.7450   65.5040   C 0  0  0  0  0  0  0  0  0  0  0  0
   41.2140   22.9120   65.1790   C 0  0  0  0  0  0  0  0  0  0  0  0
   40.7130   24.3810   65.2470   C 0  0  0  0  0  0  0  0  0  0  0  0
   40.9720   24.9410   66.7220   C 0  0  0  0  0  0  0  0  0  0  0  0
   42.5000   24.8610   67.0770   C 0  0  0  0  0  0  0  0  0  0  0  0
   40.4190   26.4050   66.7950   C 0  0  0  0  0  0  0  0  0  0  0  0
   38.9070   26.5280   66.4270   C 0  0  0  0  0  0  0  0  0  0  0  0
   38.6580   26.0230   64.9750   C 0  0  0  0  0  0  0  0  0  0  0  0
   39.1610   24.5000   64.9040   C 0  0  0  0  0  0  0  0  0  0  0  0
   38.6040   24.0730   63.5350   C 0  0  0  0  0  0  0  0  0  0  0  0
   37.1110   24.5910   63.6240   C 0  0  0  0  0  0  0  0  0  0  0  0
   37.1590   25.8400   64.5770   C 0  0  0  0  0  0  0  0  0  0  0  0
   36.5330   26.9730   63.9170   O 0  0  0  0  0  0  0  0  0  0  0  0
   39.3540   27.0060   63.9250   C 0  0  0  0  0  0  0  0  0  0  0  0
  1  2  2  0  0  0  0
  1 11  1  0  0  0  0
  2  3  1  0  0  0  0
  3  4  1  0  0  0  0
  3  5  2  0  0  0  0
  5  6  1  0  0  0  0
  6  7  1  0  0  0  0
  6 11  2  0  0  0  0
  7  8  1  0  0  0  0
  8  9  1  0  0  0  0
  9 10  1  0  0  0  0
  9 15  1  0  0  0  0
 10 11  1  0  0  0  0
 10 12  1  0  0  0  0
 12 13  1  0  0  0  0
 13 14  1  0  0  0  0
 14 15  1  0  0  0  0
 14 18  1  0  0  0  0
 14 20  1  0  0  0  0
 15 16  1  0  0  0  0
 16 17  1  0  0  0  0
 17 18  1  0  0  0  0
 18 19  1  0  0  0  0
M  END
>  <InstanceId>
1JGL_EST_L_911

>  <ChemCompId>
EST

>  <PdbId>
1JGL

>  <ChainId>
L

>  <ResidueNumber>
911

>  <InsertionCode>


>  <Model>
1

>  <AltIds>


>  <MissingHeavyAtoms>
0

>  <ObservedFormula>
C18 O2

>  <Name>
ESTRADIOL

>  <SystematicName>
(8R,9S,13S,14S,17S)-13-methyl-6,7,8,9,11,12,14,15,16,17-decahydrocyclopenta[a]phenanthrene-3,17-diol

>  <Synonyms>


>  <Type>
NON-POLYMER

>  <Formula>
C18 H24 O2

>  <MolecularWeight>
272.382

>  <ModifiedDate>
2011-06-04

>  <Parent>


>  <OneLetterCode>


>  <SubcomponentList>


>  <AmbiguousFlag>
N

>  <InChI>
InChI=1S/C18H24O2/c1-18-9-8-14-13-5-3-12(19)10-11(13)2-4-15(14)16(18)6-7-17(18)20/h3,5,10,14-17,19-20H,2,4,6-9H2,1H3/t14-,15-,16+,17+,18+/m1/s1

>  <InChIKey>
VOXZDWNPVJITMN-ZBRFXRBCSA-N

>  <SMILES>
C[C@]12CC[C@@H]3c4ccc(cc4CC[C@H]3[C@@H]1CC[C@@H]2O)O

$$$$
