2XJJ_L81_A_1225
  RCSB PDB08012018163D
Coordinates from PDB:2XJJ:A:1225 Model:1 without hydrogens
 23 26  0  0  0  0            999 V2000
    1.6920   -1.4160   -3.0030   C 0  0  0  0  0  0  0  0  0  0  0  0
    1.8320    0.6310   -4.4200   C 0  0  0  0  0  0  0  0  0  0  0  0
    0.9010   -0.2450   -3.6030   C 0  0  0  0  0  0  0  0  0  0  0  0
    0.1700    0.5580   -2.5060   C 0  0  0  0  0  0  0  0  0  0  0  0
   -0.2540   -0.7900   -4.4180   C 0  0  0  0  0  0  0  0  0  0  0  0
   -0.2570   -1.4280   -5.6590   C 0  0  0  0  0  0  0  0  0  0  0  0
   -1.4500   -1.9410   -6.1920   C 0  0  0  0  0  0  0  0  0  0  0  0
   -1.4440   -2.5990   -7.5470   C 0  0  0  0  0  0  0  0  0  0  0  0
   -1.7630   -3.7830   -7.6510   O 0  0  0  0  0  0  0  0  0  0  0  0
   -1.1470   -1.8420   -8.6480   N 0  0  0  0  0  0  0  0  0  0  0  0
   -1.1020   -2.3880  -10.0230   C 0  0  0  0  0  0  0  0  0  0  0  0
   -1.3730   -1.1670  -10.8570   C 0  0  0  0  0  0  0  0  0  0  0  0
   -1.6260   -1.0550  -12.2170   C 0  0  0  0  0  0  0  0  0  0  0  0
   -1.8390    0.1920  -12.7830   C 0  0  0  0  0  0  0  0  0  0  0  0
   -1.8100    1.3300  -11.9910   C 0  0  0  0  0  0  0  0  0  0  0  0
   -1.5540    1.2280  -10.6340   C 0  0  0  0  0  0  0  0  0  0  0  0
   -1.3290   -0.0170  -10.0610   C 0  0  0  0  0  0  0  0  0  0  0  0
   -1.0330   -0.3760   -8.6290   C 0  0  0  0  0  0  0  0  0  0  0  0
   -2.6450   -1.8030   -5.4500   C 0  0  0  0  0  0  0  0  0  0  0  0
   -3.8150   -2.3140   -5.9390   O 0  0  0  0  0  0  0  0  0  0  0  0
   -2.6280   -1.1810   -4.1950   C 0  0  0  0  0  0  0  0  0  0  0  0
   -1.4320   -0.6870   -3.6900   C 0  0  0  0  0  0  0  0  0  0  0  0
   -1.1600   -0.0440   -2.4900   N 0  0  0  0  0  0  0  0  0  0  0  0
  1  3  1  0  0  0  0
  3  4  1  0  0  0  0
  3  5  1  0  0  0  0
  3  2  1  0  0  0  0
  4 23  1  0  0  0  0
  5  6  1  0  0  0  0
  5 22  2  0  0  0  0
  6  7  2  0  0  0  0
  7  8  1  0  0  0  0
  7 19  1  0  0  0  0
  8  9  2  0  0  0  0
  8 10  1  0  0  0  0
 10 11  1  0  0  0  0
 10 18  1  0  0  0  0
 11 12  1  0  0  0  0
 12 13  1  0  0  0  0
 12 17  2  0  0  0  0
 13 14  2  0  0  0  0
 14 15  1  0  0  0  0
 15 16  2  0  0  0  0
 16 17  1  0  0  0  0
 17 18  1  0  0  0  0
 19 20  1  0  0  0  0
 19 21  2  0  0  0  0
 21 22  1  0  0  0  0
 22 23  1  0  0  0  0
M  END
>  <InstanceId>
2XJJ_L81_A_1225

>  <ChemCompId>
L81

>  <PdbId>
2XJJ

>  <ChainId>
A

>  <ResidueNumber>
1225

>  <InsertionCode>


>  <Model>
1

>  <AltIds>


>  <MissingHeavyAtoms>
0

>  <ObservedFormula>
C19 N2 O2

>  <Name>
1,3-DIHYDROISOINDOL-2-YL-(6-HYDROXY-3,3-DIMETHYL-1,2-DIHYDROINDOL-5-YL)METHANONE

>  <SystematicName>
1,3-dihydroisoindol-2-yl-(6-hydroxy-3,3-dimethyl-1,2-dihydroindol-5-yl)methanone

>  <Synonyms>


>  <Type>
non-polymer

>  <Formula>
C19 H20 N2 O2

>  <MolecularWeight>
308.374

>  <ModifiedDate>
2011-06-04

>  <Parent>


>  <OneLetterCode>


>  <SubcomponentList>


>  <AmbiguousFlag>
N

>  <InChI>
InChI=1S/C19H20N2O2/c1-19(2)11-20-16-8-17(22)14(7-15(16)19)18(23)21-9-12-5-3-4-6-13(12)10-21/h3-8,20,22H,9-11H2,1-2H3

>  <InChIKey>
ATFBTSVSJAEVMV-UHFFFAOYSA-N

>  <SMILES>
CC1(CNc2c1cc(c(c2)O)C(=O)N3Cc4ccccc4C3)C

$$$$
