5SZ6_72G_A_302
  RCSB PDB08022002563D
Coordinates from PDB:5SZ6:A:302 Model:1 without hydrogens
 18 19  0  0  0  0            999 V2000
   21.6020    8.2900   12.5010   O 0  0  0  0  0  0  0  0  0  0  0  0
   20.7970    7.4150   12.5550   C 0  0  0  0  0  0  0  0  0  0  0  0
   19.4540    7.4770   13.3010   C 0  0  0  0  0  0  0  0  0  0  0  0
   18.8800    6.3090   13.7900   C 0  0  0  0  0  0  0  0  0  0  0  0
   18.7990    8.6440   13.5440   C 0  0  0  0  0  0  0  0  0  0  0  0
   17.6170    8.6950   14.1710   C 0  0  0  0  0  0  0  0  0  0  0  0
   17.0580    7.5250   14.6400   C 0  0  0  0  0  0  0  0  0  0  0  0
   17.6570    6.3370   14.4230   C 0  0  0  0  0  0  0  0  0  0  0  0
   17.0210    5.0570   14.9760   C 0  0  0  0  0  0  0  0  0  0  0  0
   17.8300    4.0900   15.2670   C 0  0  0  0  0  0  0  0  0  0  0  0
   17.3320    2.8390   15.8710   C 0  0  0  0  0  0  0  0  0  0  0  0
   16.0160    2.6570   16.1150   C 0  0  0  0  0  0  0  0  0  0  0  0
   15.3680    1.1810   16.8860   S 0  0  0  0  0  0  0  0  0  0  0  0
   15.8850    1.2760   18.2700   O 0  0  0  0  0  0  0  0  0  0  0  0
   13.9030    1.2040   16.7890   O 0  0  0  0  0  0  0  0  0  0  0  0
   15.9730   -0.0820   16.0700   N 0  0  0  0  0  0  0  0  0  0  0  0
   15.1050    3.7940   15.7820   C 0  0  0  0  0  0  0  0  0  0  0  0
   15.5800    4.9140   15.2810   C 0  0  0  0  0  0  0  0  0  0  0  0
  5  6  2  0  0  0  0
  5  3  1  0  0  0  0
  2  3  1  0  0  0  0
  2  1  2  0  0  0  0
  6  7  1  0  0  0  0
  3  4  2  0  0  0  0
  7  8  2  0  0  0  0
  4  8  1  0  0  0  0
  8  9  1  0  0  0  0
 18  9  2  0  0  0  0
 18 17  1  0  0  0  0
  9 10  1  0  0  0  0
 17 12  2  0  0  0  0
 10 11  2  0  0  0  0
 12 11  1  0  0  0  0
 12 13  1  0  0  0  0
 16 13  1  0  0  0  0
 13 14  2  0  0  0  0
 13 15  2  0  0  0  0
M  END
>  <InstanceId>
5SZ6_72G_A_302

>  <ChemCompId>
72G

>  <PdbId>
5SZ6

>  <ChainId>
A

>  <ResidueNumber>
302

>  <InsertionCode>


>  <Model>
1

>  <AltIds>


>  <MissingHeavyAtoms>
0

>  <ObservedFormula>
C13 N O3 S

>  <Name>
4-(3-formylphenyl)-benzenesulfonamide

>  <SystematicName>
4-(3-methanoylphenyl)benzenesulfonamide

>  <Synonyms>
3'-formyl[1,1'-biphenyl]-4-sulfonamide

>  <Type>
NON-POLYMER

>  <Formula>
C13 H11 N O3 S

>  <MolecularWeight>
261.296

>  <ModifiedDate>
2020-06-17

>  <Parent>


>  <OneLetterCode>


>  <SubcomponentList>


>  <AmbiguousFlag>
N

>  <InChI>
InChI=1S/C13H11NO3S/c14-18(16,17)13-6-4-11(5-7-13)12-3-1-2-10(8-12)9-15/h1-9H,(H2,14,16,17)

>  <InChIKey>
JBAOMUKVIWMCLG-UHFFFAOYSA-N

>  <SMILES>
c1cc(cc(c1)c2ccc(cc2)S(=O)(=O)N)C=O

$$$$
