2A5B_8HG_A_255
  RCSB PDB08012016353D
Coordinates from PDB:2A5B:A:255 Model:1 without hydrogens
 20 22  0  0  0  0            999 V2000
   -0.3450   27.7960    0.0040   O 0  0  0  0  0  0  0  0  0  0  0  0
    0.5210   28.3010   -0.7500   C 0  0  0  0  0  0  0  0  0  0  0  0
    1.3440   29.2150   -0.2300   N 0  0  0  0  0  0  0  0  0  0  0  0
    2.2870   29.7720   -0.9910   C 0  0  0  0  0  0  0  0  0  0  0  0
    3.1170   30.6710   -0.5130   N 0  0  0  0  0  0  0  0  0  0  0  0
    2.4710   29.4770   -2.2760   N 0  0  0  0  0  0  0  0  0  0  0  0
    1.6670   28.5630   -2.8590   C 0  0  0  0  0  0  0  0  0  0  0  0
    0.6540   27.9370   -2.1040   C 0  0  0  0  0  0  0  0  0  0  0  0
    0.0080   27.0750   -2.9350   N 0  0  0  0  0  0  0  0  0  0  0  0
    0.6350   27.2190   -4.1130   C 0  0  0  0  0  0  0  0  0  0  0  0
    0.2880   26.5660   -5.1640   O 0  0  0  0  0  0  0  0  0  0  0  0
    1.6470   28.1050   -4.1100   N 0  0  0  0  0  0  0  0  0  0  0  0
    2.5440   28.5020   -5.2430   C 0  0  0  0  0  0  0  0  0  0  0  0
    3.7330   29.2840   -4.9760   O 0  0  0  0  0  0  0  0  0  0  0  0
    1.7440   29.3490   -6.2270   C 0  0  0  0  0  0  0  0  0  0  0  0
    2.7820   30.2110   -6.9160   C 0  0  0  0  0  0  0  0  0  0  0  0
    2.6750   29.8820   -8.3030   O 0  0  0  0  0  0  0  0  0  0  0  0
    4.1000   29.7610   -6.2810   C 0  0  0  0  0  0  0  0  0  0  0  0
    5.1850   30.8180   -6.3070   C 0  0  0  0  0  0  0  0  0  0  0  0
    4.7560   31.9000   -7.1520   O 0  0  0  0  0  0  0  0  0  0  0  0
  1  2  2  0  0  0  0
  2  3  1  0  0  0  0
  2  8  1  0  0  0  0
  3  4  1  0  0  0  0
  4  5  1  0  0  0  0
  4  6  2  0  0  0  0
  6  7  1  0  0  0  0
  7  8  2  0  0  0  0
  7 12  1  0  0  0  0
  8  9  1  0  0  0  0
  9 10  1  0  0  0  0
 10 11  2  0  0  0  0
 10 12  1  0  0  0  0
 12 13  1  0  0  0  0
 13 14  1  0  0  0  0
 13 15  1  0  0  0  0
 14 18  1  0  0  0  0
 15 16  1  0  0  0  0
 16 17  1  0  0  0  0
 16 18  1  0  0  0  0
 18 19  1  0  0  0  0
 19 20  1  0  0  0  0
M  END
>  <InstanceId>
2A5B_8HG_A_255

>  <ChemCompId>
8HG

>  <PdbId>
2A5B

>  <ChainId>
A

>  <ResidueNumber>
255

>  <InsertionCode>


>  <Model>
1

>  <AltIds>


>  <MissingHeavyAtoms>
0

>  <ObservedFormula>
C10 N5 O5

>  <Name>
2'-DEOXY-8-OXOGUANOSINE

>  <SystematicName>
2-amino-9-[(2R,4S,5R)-4-hydroxy-5-(hydroxymethyl)oxolan-2-yl]-1,7-dihydropurine-6,8-dione

>  <Synonyms>


>  <Type>
NON-POLYMER

>  <Formula>
C10 H13 N5 O5

>  <MolecularWeight>
283.241

>  <ModifiedDate>
2011-06-04

>  <Parent>


>  <OneLetterCode>


>  <SubcomponentList>


>  <AmbiguousFlag>
N

>  <InChI>
InChI=1S/C10H13N5O5/c11-9-13-7-6(8(18)14-9)12-10(19)15(7)5-1-3(17)4(2-16)20-5/h3-5,16-17H,1-2H2,(H,12,19)(H3,11,13,14,18)/t3-,4+,5+/m0/s1

>  <InChIKey>
HCAJQHYUCKICQH-VPENINKCSA-N

>  <SMILES>
C1[C@@H]([C@H](O[C@H]1N2C3=C(C(=O)NC(=N3)N)NC2=O)CO)O

$$$$
