5U0G_7QY_A_302
  RCSB PDB08022003093D
Coordinates from PDB:5U0G:A:302 Model:1 without hydrogens
 18 19  0  0  0  0            999 V2000
   -4.9760    5.3550   15.0650   C 0  0  0  0  0  0  0  0  0  0  0  0
   -4.4980    6.6060   15.3600   C 0  0  0  0  0  0  0  0  0  0  0  0
   -2.5270    6.1970   14.1030   C 0  0  0  0  0  0  0  0  0  0  0  0
   -4.2370    4.4850   14.2900   C 0  0  0  0  0  0  0  0  0  0  0  0
   -3.2790    7.0420   14.8840   C 0  0  0  0  0  0  0  0  0  0  0  0
   -3.0110    4.9140   13.8150   C 0  0  0  0  0  0  0  0  0  0  0  0
   -4.7730    0.7390   14.8810   C 0  0  0  0  0  0  0  0  0  0  0  0
   -5.8070    1.0360   16.7960   C 0  0  0  0  0  0  0  0  0  0  0  0
   -4.2880    2.1500   15.1330   C 0  0  0  0  0  0  0  0  0  0  0  0
   -1.6140    8.7670   14.7740   C 0  0  0  0  0  0  0  0  0  0  0  0
   -1.1380    4.5770   12.4010   C 0  0  0  0  0  0  0  0  0  0  0  0
   -4.8400    3.1210   14.0540   C 0  0  0  0  0  0  0  0  0  0  0  0
   -5.5690    0.1980   15.8150   N 0  0  0  0  0  0  0  0  0  0  0  0
   -4.4360    0.1730   13.8630   O 0  0  0  0  0  0  0  0  0  0  0  0
   -6.5560    0.8790   17.7140   O 0  0  0  0  0  0  0  0  0  0  0  0
   -2.9120    8.3540   15.2480   O 0  0  0  0  0  0  0  0  0  0  0  0
   -2.3020    4.0100   13.0360   O 0  0  0  0  0  0  0  0  0  0  0  0
   -4.8650    2.4800   16.8110   S 0  0  0  0  0  0  0  0  0  0  0  0
 11 17  1  0  0  0  0
 17  6  1  0  0  0  0
  6  3  2  0  0  0  0
  6  4  1  0  0  0  0
 14  7  2  0  0  0  0
 12  4  1  0  0  0  0
 12  9  1  0  0  0  0
  3  5  1  0  0  0  0
  4  1  2  0  0  0  0
 10 16  1  0  0  0  0
  7  9  1  0  0  0  0
  7 13  1  0  0  0  0
  5 16  1  0  0  0  0
  5  2  2  0  0  0  0
  1  2  1  0  0  0  0
  9 18  1  0  0  0  0
 13  8  1  0  0  0  0
  8 18  1  0  0  0  0
  8 15  2  0  0  0  0
M  END
>  <InstanceId>
5U0G_7QY_A_302

>  <ChemCompId>
7QY

>  <PdbId>
5U0G

>  <ChainId>
A

>  <ResidueNumber>
302

>  <InsertionCode>


>  <Model>
1

>  <AltIds>


>  <MissingHeavyAtoms>
0

>  <ObservedFormula>
C12 N O4 S

>  <Name>
(5R)-5-[(2,4-dimethoxyphenyl)methyl]-1,3-thiazolidine-2,4-dione

>  <SystematicName>
(5~{R})-5-[(2,4-dimethoxyphenyl)methyl]-1,3-thiazolidine-2,4-dione

>  <Synonyms>


>  <Type>
NON-POLYMER

>  <Formula>
C12 H13 N O4 S

>  <MolecularWeight>
267.301

>  <ModifiedDate>
2017-08-25

>  <Parent>


>  <OneLetterCode>


>  <SubcomponentList>


>  <AmbiguousFlag>
N

>  <InChI>
InChI=1S/C12H13NO4S/c1-16-8-4-3-7(9(6-8)17-2)5-10-11(14)13-12(15)18-10/h3-4,6,10H,5H2,1-2H3,(H,13,14,15)/t10-/m1/s1

>  <InChIKey>
KGQRHOMYUSKNBZ-SNVBAGLBSA-N

>  <SMILES>
COc1ccc(c(c1)OC)C[C@@H]2C(=O)NC(=O)S2

$$$$
