3TU7_0BM_H_1
  RCSB PDB08012020363D
Coordinates from PDB:3TU7:H:1 Model:1 without hydrogens
 33 35  0  0  0  0            999 V2000
   25.1880    6.8250   23.5700   S 0  0  0  0  0  0  0  0  0  0  0  0
   25.4090    6.4220   24.9210   O 0  0  0  0  0  0  0  0  0  0  0  0
   24.8250    8.1800   23.2980   O 0  0  0  0  0  0  0  0  0  0  0  0
   23.9730    5.7800   22.8720   C 0  0  0  0  0  0  0  0  0  0  0  0
   26.6110    6.5780   22.7990   N 0  0  0  0  0  0  0  0  0  0  0  0
   27.3440    5.3200   22.8690   C 0  0  0  0  0  0  0  0  0  0  0  0
   26.9480    4.5060   21.6280   C 0  0  0  0  0  0  0  0  0  0  0  0
   26.8810    5.0780   20.5540   O 0  0  0  0  0  0  0  0  0  0  0  0
   28.8430    5.6500   22.8740   C 0  0  0  0  0  0  0  0  0  0  0  0
   29.7150    4.4230   22.9550   C 0  0  0  0  0  0  0  0  0  0  0  0
   30.4780    4.0190   21.8630   C 0  0  0  0  0  0  0  0  0  0  0  0
   29.7700    3.6620   24.1190   C 0  0  0  0  0  0  0  0  0  0  0  0
   31.2690    2.8820   21.9310   C 0  0  0  0  0  0  0  0  0  0  0  0
   30.5640    2.5250   24.1870   C 0  0  0  0  0  0  0  0  0  0  0  0
   31.3130    2.1350   23.0950   C 0  0  0  0  0  0  0  0  0  0  0  0
   26.6090    3.2040   21.7600   N 0  0  0  0  0  0  0  0  0  0  0  0
   26.2120    2.4040   20.5940   C 0  0  0  0  0  0  0  0  0  0  0  0
   24.8490    2.8670   20.0890   C 0  0  0  0  0  0  0  0  0  0  0  0
   24.0050    3.2950   20.8750   O 0  0  0  0  0  0  0  0  0  0  0  0
   26.1330    0.9690   21.1500   C 0  0  0  0  0  0  0  0  0  0  0  0
   26.8060    1.0140   22.4990   C 0  0  0  0  0  0  0  0  0  0  0  0
   26.5430    2.4040   22.9930   C 0  0  0  0  0  0  0  0  0  0  0  0
   24.6430    2.8100   18.7790   N 0  0  0  0  0  0  0  0  0  0  0  0
   23.4130    3.3180   18.1880   C 0  0  0  0  0  0  0  0  0  0  0  0
   23.4260    4.7010   17.5500   C 0  0  0  0  0  0  0  0  0  0  0  0
   24.2250    4.7340   16.2500   C 0  0  0  0  0  0  0  0  0  0  0  0
   24.0700    6.0750   15.5150   C 0  0  0  0  0  0  0  0  0  0  0  0
   24.4140    7.2150   16.3830   N 0  0  0  0  0  0  0  0  0  0  0  0
   23.6990    7.2310   17.6770   C 0  0  0  0  0  0  0  0  0  0  0  0
   23.8340    5.8930   18.4170   C 0  0  0  0  0  0  0  0  0  0  0  0
   24.8860    8.4200   15.7470   C 0  0  0  0  0  0  0  0  0  0  0  0
   24.7240    9.6360   16.5220   N 0  0  0  0  0  0  0  0  0  0  0  0
   25.4370    8.5360   14.5790   N 0  0  0  0  0  0  0  0  0  0  0  0
 11 13  2  0  0  0  0
 11 10  1  0  0  0  0
 13 15  1  0  0  0  0
 15 14  2  0  0  0  0
 12 14  1  0  0  0  0
 10 12  2  0  0  0  0
  9 10  1  0  0  0  0
  6  9  1  0  0  0  0
  5  6  1  0  0  0  0
  5  1  1  0  0  0  0
  1  2  2  0  0  0  0
  3  1  2  0  0  0  0
  4  1  1  0  0  0  0
  7 16  1  0  0  0  0
  7  6  1  0  0  0  0
  8  7  2  0  0  0  0
 16 22  1  0  0  0  0
 21 22  1  0  0  0  0
 20 21  1  0  0  0  0
 17 20  1  0  0  0  0
 17 16  1  0  0  0  0
 18 17  1  0  0  0  0
 18 19  2  0  0  0  0
 23 18  1  0  0  0  0
 24 23  1  0  0  0  0
 25 24  1  0  0  0  0
 25 30  1  0  0  0  0
 26 25  1  0  0  0  0
 27 26  1  0  0  0  0
 27 28  1  0  0  0  0
 28 29  1  0  0  0  0
 29 30  1  0  0  0  0
 31 28  1  0  0  0  0
 31 32  1  0  0  0  0
 33 31  2  0  0  0  0
M  END
>  <InstanceId>
3TU7_0BM_H_1

>  <ChemCompId>
0BM

>  <PdbId>
3TU7

>  <ChainId>
H

>  <ResidueNumber>
1

>  <InsertionCode>


>  <Model>
1

>  <AltIds>


>  <MissingHeavyAtoms>
0

>  <ObservedFormula>
C22 N6 O4 S

>  <Name>
N-(methylsulfonyl)-D-phenylalanyl-N-[(1-carbamimidoylpiperidin-4-yl)methyl]-L-prolinamide

>  <SystematicName>
(2S)-N-[(1-carbamimidoylpiperidin-4-yl)methyl]-1-[(2R)-2-(methylsulfonylamino)-3-phenyl-propanoyl]pyrrolidine-2-carboxamide

>  <Synonyms>


>  <Type>
NON-POLYMER

>  <Formula>
C22 H34 N6 O4 S

>  <MolecularWeight>
478.608

>  <ModifiedDate>
2011-10-07

>  <Parent>


>  <OneLetterCode>


>  <SubcomponentList>
03S DPN PRO 03N

>  <AmbiguousFlag>
N

>  <InChI>
InChI=1S/C22H34N6O4S/c1-33(31,32)26-18(14-16-6-3-2-4-7-16)21(30)28-11-5-8-19(28)20(29)25-15-17-9-12-27(13-10-17)22(23)24/h2-4,6-7,17-19,26H,5,8-15H2,1H3,(H3,23,24)(H,25,29)/t18-,19+/m1/s1

>  <InChIKey>
UCVAQBJLJIKTFJ-MOPGFXCFSA-N

>  <SMILES>
[H]/N=C(\N)/N1CCC(CC1)CNC(=O)[C@@H]2CCCN2C(=O)[C@@H](Cc3ccccc3)NS(=O)(=O)C

$$$$
