3LQ2_TDP_A_887
  RCSB PDB08012019433D
Coordinates from PDB:3LQ2:A:887 Model:1 without hydrogens
 26 27  0  0  0  0            999 V2000
   24.3550  -59.6140    1.5870   N 0  0  0  0  0  0  0  0  0  0  0  0
   24.1320  -58.7230    0.5550   C 0  0  0  0  0  0  0  0  0  0  0  0
   24.2420  -57.2720    0.8740   C 0  0  0  0  0  0  0  0  0  0  0  0
   23.8250  -59.1140   -0.6860   N 0  0  0  0  0  0  0  0  0  0  0  0
   23.7250  -60.4800   -0.9610   C 0  0  0  0  0  0  0  0  0  0  0  0
   23.4320  -60.8050   -2.2050   N 0  0  0  0  0  0  0  0  0  0  0  0
   23.9560  -61.4690    0.1180   C 0  0  0  0  0  0  0  0  0  0  0  0
   24.2660  -60.9720    1.3620   C 0  0  0  0  0  0  0  0  0  0  0  0
   23.8830  -62.9680   -0.0770   C 0  0  0  0  0  0  0  0  0  0  0  0
   22.4710  -63.5100   -0.0770   N 0  3  0  0  0  0  0  0  0  0  0  0
   21.7440  -63.6370   -1.1720   C 0  0  0  0  0  0  0  0  0  0  0  0
   20.2410  -64.2950   -0.8810   S 0  0  0  0  0  0  0  0  0  0  0  0
   20.5630  -64.4230    0.8080   C 0  0  0  0  0  0  0  0  0  0  0  0
   21.8180  -63.9540    1.0950   C 0  0  0  0  0  0  0  0  0  0  0  0
   22.4860  -63.8830    2.4390   C 0  0  0  0  0  0  0  0  0  0  0  0
   19.5490  -64.9870    1.7590   C 0  0  0  0  0  0  0  0  0  0  0  0
   18.1780  -65.1000    1.1420   C 0  0  0  0  0  0  0  0  0  0  0  0
   17.1940  -64.8800    2.1940   O 0  0  0  0  0  0  0  0  0  0  0  0
   15.9390  -63.8730    2.0090   P 0  0  0  0  0  0  0  0  0  0  0  0
   15.2310  -64.3730    0.6470   O 0  0  0  0  0  0  0  0  0  0  0  0
   15.0010  -64.1030    3.1330   O 0  0  0  0  0  0  0  0  0  0  0  0
   16.4580  -62.4920    1.7820   O 0  0  0  0  0  0  0  0  0  0  0  0
   14.6880  -65.7750    0.0690   P 0  0  0  0  0  0  0  0  0  0  0  0
   13.2930  -65.4720   -0.5610   O 0  0  0  0  0  0  0  0  0  0  0  0
   15.6240  -66.1910   -1.0090   O 0  5  0  0  0  0  0  0  0  0  0  0
   14.5090  -66.7050    1.2200   O 0  0  0  0  0  0  0  0  0  0  0  0
  1  2  2  0  0  0  0
  1  8  1  0  0  0  0
  2  3  1  0  0  0  0
  2  4  1  0  0  0  0
  4  5  2  0  0  0  0
  5  6  1  0  0  0  0
  5  7  1  0  0  0  0
  7  8  2  0  0  0  0
  7  9  1  0  0  0  0
  9 10  1  0  0  0  0
 10 11  2  0  0  0  0
 10 14  1  0  0  0  0
 11 12  1  0  0  0  0
 12 13  1  0  0  0  0
 13 14  2  0  0  0  0
 13 16  1  0  0  0  0
 14 15  1  0  0  0  0
 16 17  1  0  0  0  0
 17 18  1  0  0  0  0
 18 19  1  0  0  0  0
 19 20  1  0  0  0  0
 19 21  2  0  0  0  0
 19 22  1  0  0  0  0
 20 23  1  0  0  0  0
 23 24  2  0  0  0  0
 23 25  1  0  0  0  0
 23 26  1  0  0  0  0
M  CHG  2  10   1  25  -1
M  END
>  <InstanceId>
3LQ2_TDP_A_887

>  <ChemCompId>
TDP

>  <PdbId>
3LQ2

>  <ChainId>
A

>  <ResidueNumber>
887

>  <InsertionCode>


>  <Model>
1

>  <AltIds>


>  <MissingHeavyAtoms>
0

>  <ObservedFormula>
C12 N4 O7 P2 S

>  <Name>
THIAMIN DIPHOSPHATE

>  <SystematicName>
[2-[3-[(4-amino-2-methyl-pyrimidin-5-yl)methyl]-4-methyl-1,3-thiazol-3-ium-5-yl]ethoxy-hydroxy-phosphoryl] hydrogen phosphate

>  <Synonyms>


>  <Type>
NON-POLYMER

>  <Formula>
C12 H18 N4 O7 P2 S

>  <MolecularWeight>
424.306

>  <ModifiedDate>
2011-06-04

>  <Parent>


>  <OneLetterCode>


>  <SubcomponentList>


>  <AmbiguousFlag>
N

>  <InChI>
InChI=1S/C12H18N4O7P2S/c1-8-11(3-4-22-25(20,21)23-24(17,18)19)26-7-16(8)6-10-5-14-9(2)15-12(10)13/h5,7H,3-4,6H2,1-2H3,(H4-,13,14,15,17,18,19,20,21)

>  <InChIKey>
AYEKOFBPNLCAJY-UHFFFAOYSA-N

>  <SMILES>
Cc1c(sc[n+]1Cc2cnc(nc2N)C)CCO[P@@](=O)(O)O[P@](=O)(O)[O-]

$$$$
