4XTY_44L_A_301
  RCSB PDB08022000233D
Coordinates from PDB:4XTY:A:301 Model:1 without hydrogens
 38 42  0  0  0  0            999 V2000
   -5.7383   -0.3082   11.3994   C 0  0  0  0  0  0  0  0  0  0  0  0
   -6.1949   -1.0640   14.9225   N 0  0  0  0  0  0  0  0  0  0  0  0
   -5.4142   -0.5455   12.7175   C 0  0  0  0  0  0  0  0  0  0  0  0
   -4.6040   -0.0706   10.7395   N 0  0  0  0  0  0  0  0  0  0  0  0
   -3.5678   -0.1899   11.5943   C 0  0  0  0  0  0  0  0  0  0  0  0
   -2.1536   -9.9096   13.7482   C 0  0  0  0  0  0  0  0  0  0  0  0
   -0.9237   -9.1754   13.4969   N 0  0  0  0  0  0  0  0  0  0  0  0
   -0.0127   -9.3754   14.4556   C 0  0  0  0  0  0  0  0  0  0  0  0
    1.0743   -8.8020   14.5292   O 0  0  0  0  0  0  0  0  0  0  0  0
   -0.4673  -10.2648   15.3409   N 0  0  0  0  0  0  0  0  0  0  0  0
   -1.8440  -10.6251   15.0751   C 0  0  0  0  0  0  0  0  0  0  0  0
   -2.7382  -10.0979   16.2050   C 0  0  0  0  0  0  0  0  0  0  0  0
   -3.2627   -8.5155   15.6339   S 0  0  0  0  0  0  0  0  0  0  0  0
   -3.3671   -8.9919   13.9366   C 0  0  0  0  0  0  0  0  0  0  0  0
   -3.4367   -7.8086   12.9754   C 0  0  0  0  0  0  0  0  0  0  0  0
   -3.6523   -8.2929   11.5504   C 0  0  0  0  0  0  0  0  0  0  0  0
   -3.9369   -7.1367   10.5935   C 0  0  0  0  0  0  0  0  0  0  0  0
   -4.0890   -7.5863    9.1461   C 0  0  0  0  0  0  0  0  0  0  0  0
   -4.4622   -6.3969    8.2684   C 0  0  0  0  0  0  0  0  0  0  0  0
   -5.5321   -5.8437    8.3940   O 0  0  0  0  0  0  0  0  0  0  0  0
   -3.5606   -5.9701    7.3873   N 0  0  0  0  0  0  0  0  0  0  0  0
   -3.9711   -4.8791    6.2758   S 0  0  0  0  0  0  0  0  0  0  0  0
   -5.1803   -5.2528    5.5893   O 0  0  0  0  0  0  0  0  0  0  0  0
   -2.8924   -4.7350    5.3413   O 0  0  0  0  0  0  0  0  0  0  0  0
   -4.2480   -3.4845    7.0151   N 0  0  0  0  0  0  0  0  0  0  0  0
   -3.1505   -2.7371    7.6009   C 0  0  0  0  0  0  0  0  0  0  0  0
   -3.5687   -1.2798    7.7478   C 0  0  0  0  0  0  0  0  0  0  0  0
   -4.6706   -1.0855    8.6394   O 0  0  0  0  0  0  0  0  0  0  0  0
   -2.4705   -0.3981    8.3101   C 0  0  0  0  0  0  0  0  0  0  0  0
   -1.5405   -0.0507    7.2741   O 0  0  0  0  0  0  0  0  0  0  0  0
   -3.2468    0.7934    8.8287   C 0  0  0  0  0  0  0  0  0  0  0  0
   -4.5671    0.1916    9.2939   C 0  0  0  0  0  0  0  0  0  0  0  0
   -4.0620   -0.4708   12.8251   N 0  0  0  0  0  0  0  0  0  0  0  0
   -7.0235   -0.3099   10.9844   N 0  0  0  0  0  0  0  0  0  0  0  0
   -8.0000   -0.5709   11.8711   C 0  0  0  0  0  0  0  0  0  0  0  0
   -7.7204   -0.8149   13.1587   N 0  0  0  0  0  0  0  0  0  0  0  0
   -6.4451   -0.8090   13.6141   C 0  0  0  0  0  0  0  0  0  0  0  0
   -3.5616    1.5620    7.7327   F 0  0  0  0  0  0  0  0  0  0  0  0
  2 37  1  0  0  0  0
 37 36  2  0  0  0  0
 37  3  1  0  0  0  0
 12 13  1  0  0  0  0
 12 11  1  0  0  0  0
 13 14  1  0  0  0  0
 36 35  1  0  0  0  0
 33  3  1  0  0  0  0
 33  5  2  0  0  0  0
  3  1  2  0  0  0  0
 10 11  1  0  0  0  0
 10  8  1  0  0  0  0
  9  8  2  0  0  0  0
 11  6  1  0  0  0  0
 35 34  2  0  0  0  0
  5  4  1  0  0  0  0
  8  7  1  0  0  0  0
  1 34  1  0  0  0  0
  1  4  1  0  0  0  0
 14  6  1  0  0  0  0
 14 15  1  0  0  0  0
  4 32  1  0  0  0  0
  6  7  1  0  0  0  0
 15 16  1  0  0  0  0
 32 31  1  0  0  0  0
 32 28  1  0  0  0  0
 31 29  1  0  0  0  0
 31 38  1  0  0  0  0
 16 17  1  0  0  0  0
 17 18  1  0  0  0  0
 29 30  1  0  0  0  0
 29 27  1  0  0  0  0
 28 27  1  0  0  0  0
 27 26  1  0  0  0  0
 26 25  1  0  0  0  0
 18 19  1  0  0  0  0
 20 19  2  0  0  0  0
 19 21  1  0  0  0  0
 25 22  1  0  0  0  0
 21 22  1  0  0  0  0
 22 23  2  0  0  0  0
 22 24  2  0  0  0  0
M  END
>  <InstanceId>
4XTY_44L_A_301

>  <ChemCompId>
44L

>  <PdbId>
4XTY

>  <ChainId>
A

>  <ResidueNumber>
301

>  <InsertionCode>


>  <Model>
1

>  <AltIds>


>  <MissingHeavyAtoms>
0

>  <ObservedFormula>
C20 N9 O6 S2 F

>  <Name>
2',5'-dideoxy-2'-fluoro-5'-[({5-[(3aS,4S,6aR)-2-oxohexahydro-1H-thieno[3,4-d]imidazol-4-yl]pentanoyl}sulfamoyl)amino]adenosine

>  <SystematicName>
5-[(3aS,4S,6aR)-2-oxidanylidene-1,3,3a,4,6,6a-hexahydrothieno[3,4-d]imidazol-4-yl]-N-[[(2R,3R,4R,5R)-5-(6-aminopurin-9-yl)-4-fluoranyl-3-oxidanyl-oxolan-2-yl]methylsulfamoyl]pentanamide

>  <Synonyms>


>  <Type>
NON-POLYMER

>  <Formula>
C20 H28 F N9 O6 S2

>  <MolecularWeight>
573.621

>  <ModifiedDate>
2015-08-28

>  <Parent>


>  <OneLetterCode>


>  <SubcomponentList>


>  <AmbiguousFlag>
N

>  <InChI>
InChI=1S/C20H28FN9O6S2/c21-13-16(32)10(36-19(13)30-8-25-15-17(22)23-7-24-18(15)30)5-26-38(34,35)29-12(31)4-2-1-3-11-14-9(6-37-11)27-20(33)28-14/h7-11,13-14,16,19,26,32H,1-6H2,(H,29,31)(H2,22,23,24)(H2,27,28,33)/t9-,10+,11-,13+,14-,16+,19+/m0/s1

>  <InChIKey>
YGQCUYNQUMQODL-LHWMPIBMSA-N

>  <SMILES>
c1nc(c2c(n1)n(cn2)[C@H]3[C@@H]([C@@H]([C@H](O3)CNS(=O)(=O)NC(=O)CCCC[C@H]4[C@@H]5[C@H](CS4)NC(=O)N5)O)F)N

$$$$
