5UFS_1TA_A_301
  RCSB PDB08022003123D
Coordinates from PDB:5UFS:A:301 Model:1 without hydrogens
 31 35  0  0  0  0            999 V2000
   21.7320   36.5530   19.8270   C 0  0  0  0  0  0  0  0  0  0  0  0
   21.7420   37.7210   20.7540   C 0  0  0  0  0  0  0  0  0  0  0  0
   22.3010   38.8600   20.3940   C 0  0  0  0  0  0  0  0  0  0  0  0
   22.9190   39.1960   19.0180   C 0  0  0  0  0  0  0  0  0  0  0  0
   24.3730   39.6410   19.2960   C 0  0  0  0  0  0  0  0  0  0  0  0
   23.0650   37.9380   18.1490   C 0  0  0  0  0  0  0  0  0  0  0  0
   23.5490   38.3680   16.7260   C 0  0  0  0  0  0  0  0  0  0  0  0
   22.9550   39.6350   15.9780   C 0  0  0  0  0  0  0  0  0  0  0  0
   22.8180   40.9070   16.8390   C 0  0  0  0  0  0  0  0  0  0  0  0
   22.1600   40.4430   18.2170   C 0  0  0  0  0  0  0  0  0  0  0  0
   21.9480   41.7560   19.1240   C 0  0  0  0  0  0  0  0  0  0  0  0
   21.2200   42.9520   18.3670   C 0  0  0  0  0  0  0  0  0  0  0  0
   21.8020   43.3570   16.9930   C 0  0  0  0  0  0  0  0  0  0  0  0
   23.1760   44.0040   17.2550   C 0  0  0  0  0  0  0  0  0  0  0  0
   21.9840   42.0850   16.1180   C 0  0  0  0  0  0  0  0  0  0  0  0
   22.3810   42.7680   14.7740   C 0  0  0  0  0  0  0  0  0  0  0  0
   21.4070   43.9760   14.5790   C 0  0  0  0  0  0  0  0  0  0  0  0
   20.9720   44.4010   16.0330   C 0  0  0  0  0  0  0  0  0  0  0  0
   19.0660   43.9860   14.6380   C 0  0  0  0  0  0  0  0  0  0  0  0
   18.2910   45.2050   14.0710   C 0  0  0  0  0  0  0  0  0  0  0  0
   18.1220   42.7550   14.5740   C 0  0  0  0  0  0  0  0  0  0  0  0
   21.2970   45.9060   16.3510   C 0  0  0  0  0  0  0  0  0  0  0  0
   20.5750   46.6870   17.4610   C 0  0  0  0  0  0  0  0  0  0  0  0
   22.4980   36.7630   18.5430   C 0  0  0  0  0  0  0  0  0  0  0  0
   20.9230   39.9790   17.9780   F 0  0  0  0  0  0  0  0  0  0  0  0
   21.1450   35.5130   20.0970   O 0  0  0  0  0  0  0  0  0  0  0  0
   23.1920   42.1920   19.5720   O 0  0  0  0  0  0  0  0  0  0  0  0
   19.5690   44.2500   15.9580   O 0  0  0  0  0  0  0  0  0  0  0  0
   20.2110   43.6730   13.8820   O 0  0  0  0  0  0  0  0  0  0  0  0
   21.3440   47.7840   17.8650   O 0  0  0  0  0  0  0  0  0  0  0  0
   22.1580   46.4750   15.7020   O 0  0  0  0  0  0  0  0  0  0  0  0
 29 17  1  0  0  0  0
 29 19  1  0  0  0  0
 20 19  1  0  0  0  0
 21 19  1  0  0  0  0
 17 16  1  0  0  0  0
 17 18  1  0  0  0  0
 19 28  1  0  0  0  0
 16 15  1  0  0  0  0
 31 22  2  0  0  0  0
 28 18  1  0  0  0  0
  8  7  1  0  0  0  0
  8  9  1  0  0  0  0
 18 22  1  0  0  0  0
 18 13  1  0  0  0  0
 15  9  1  0  0  0  0
 15 13  1  0  0  0  0
 22 23  1  0  0  0  0
  7  6  1  0  0  0  0
  9 10  1  0  0  0  0
 13 14  1  0  0  0  0
 13 12  1  0  0  0  0
 23 30  1  0  0  0  0
 25 10  1  0  0  0  0
  6 24  2  0  0  0  0
  6  4  1  0  0  0  0
 10  4  1  0  0  0  0
 10 11  1  0  0  0  0
 12 11  1  0  0  0  0
 24  1  1  0  0  0  0
  4  5  1  0  0  0  0
  4  3  1  0  0  0  0
 11 27  1  0  0  0  0
  1 26  2  0  0  0  0
  1  2  1  0  0  0  0
  3  2  2  0  0  0  0
M  END
>  <InstanceId>
5UFS_1TA_A_301

>  <ChemCompId>
1TA

>  <PdbId>
5UFS

>  <ChainId>
A

>  <ResidueNumber>
301

>  <InsertionCode>


>  <Model>
1

>  <AltIds>


>  <MissingHeavyAtoms>
0

>  <ObservedFormula>
C24 O6 F

>  <Name>
Triamcinolone acetonide

>  <SystematicName>
(1~{S},2~{S},4~{R},8~{S},9~{S},11~{S},12~{R},13~{S})-12-fluoranyl-6,6,9,13-tetramethyl-11-oxidanyl-8-(2-oxidanylethanoyl)-5,7-dioxapentacyclo[10.8.0.0^{2,9}.0^{4,8}.0^{13,18}]icosa-14,17-dien-16-one

>  <Synonyms>
(4aS,4bR,5S,6aS,6bS,9aR,10aS,10bS)-4b-fluoro-5-hydroxy-6b-(hydroxyacetyl)-4a,6a,8,8-tetramethyl-4a,4b,5,6,6a,6b,9a,10,10a,10b,11,12-dodecahydro-2H,8H-naphtho[2',1':4,5]indeno[1,2-d][1,3]dioxol-2-one

>  <Type>
NON-POLYMER

>  <Formula>
C24 H31 F O6

>  <MolecularWeight>
434.498

>  <ModifiedDate>
2017-04-21

>  <Parent>


>  <OneLetterCode>


>  <SubcomponentList>


>  <AmbiguousFlag>
N

>  <InChI>
InChI=1S/C24H31FO6/c1-20(2)30-19-10-16-15-6-5-13-9-14(27)7-8-21(13,3)23(15,25)17(28)11-22(16,4)24(19,31-20)18(29)12-26/h7-9,15-17,19,26,28H,5-6,10-12H2,1-4H3/t15-,16-,17-,19+,21-,22-,23-,24+/m0/s1

>  <InChIKey>
YNDXUCZADRHECN-JNQJZLCISA-N

>  <SMILES>
C[C@]12C[C@@H]([C@]3([C@H]([C@@H]1C[C@@H]4[C@]2(OC(O4)(C)C)C(=O)CO)CCC5=CC(=O)C=C[C@@]53C)F)O

$$$$
