5C2O_TTP_A_704
  RCSB PDB08022000553D
Coordinates from PDB:5C2O:A:704 Model:1 without hydrogens
 29 30  0  0  0  0            999 V2000
   67.0270   56.4620   38.8800   P 0  0  0  0  0  0  0  0  0  0  0  0
   66.6320   56.6950   37.4380   O 0  0  0  0  0  0  0  0  0  0  0  0
   65.8120   56.0830   39.7040   O 0  0  0  0  0  0  0  0  0  0  0  0
   68.2090   55.3570   39.0850   O 0  0  0  0  0  0  0  0  0  0  0  0
   68.6060   54.1580   38.0620   P 0  0  0  0  0  0  0  0  0  0  0  0
   67.5910   54.0270   36.9300   O 0  0  0  0  0  0  0  0  0  0  0  0
   68.7790   52.8350   38.7820   O 0  0  0  0  0  0  0  0  0  0  0  0
   70.0810   54.5900   37.5410   O 0  0  0  0  0  0  0  0  0  0  0  0
   70.3840   55.4410   36.1900   P 0  0  0  0  0  0  0  0  0  0  0  0
   71.0470   54.5190   35.1850   O 0  0  0  0  0  0  0  0  0  0  0  0
   71.3250   56.5730   36.5450   O 0  0  0  0  0  0  0  0  0  0  0  0
   69.1210   56.0810   35.6430   O 0  0  0  0  0  0  0  0  0  0  0  0
   67.7540   57.7910   39.4600   O 0  0  0  0  0  0  0  0  0  0  0  0
   68.6330   58.5280   38.6120   C 0  0  0  0  0  0  0  0  0  0  0  0
   68.8450   59.9470   39.1230   C 0  0  0  0  0  0  0  0  0  0  0  0
   68.7650   60.0010   40.5500   O 0  0  0  0  0  0  0  0  0  0  0  0
   70.2350   60.4180   38.7610   C 0  0  0  0  0  0  0  0  0  0  0  0
   70.1070   61.7820   38.3830   O 0  0  0  0  0  0  0  0  0  0  0  0
   71.0390   60.3720   40.0500   C 0  0  0  0  0  0  0  0  0  0  0  0
   69.9810   60.4700   41.1370   C 0  0  0  0  0  0  0  0  0  0  0  0
   70.3220   59.7040   42.3570   N 0  0  0  0  0  0  0  0  0  0  0  0
   71.2540   60.2670   43.2750   C 0  0  0  0  0  0  0  0  0  0  0  0
   71.7670   61.3860   43.0220   O 0  0  0  0  0  0  0  0  0  0  0  0
   71.5930   59.6310   44.4220   N 0  0  0  0  0  0  0  0  0  0  0  0
   71.0590   58.4330   44.7180   C 0  0  0  0  0  0  0  0  0  0  0  0
   71.3770   57.8510   45.7810   O 0  0  0  0  0  0  0  0  0  0  0  0
   70.0850   57.8080   43.7670   C 0  0  0  0  0  0  0  0  0  0  0  0
   69.4630   56.4600   44.0770   C 0  0  0  0  0  0  0  0  0  0  0  0
   69.7560   58.5040   42.6020   C 0  0  0  0  0  0  0  0  0  0  0  0
  1  2  2  0  0  0  0
  1  3  1  0  0  0  0
  1  4  1  0  0  0  0
  1 13  1  0  0  0  0
  4  5  1  0  0  0  0
  5  6  2  0  0  0  0
  5  7  1  0  0  0  0
  5  8  1  0  0  0  0
  8  9  1  0  0  0  0
  9 10  2  0  0  0  0
  9 11  1  0  0  0  0
  9 12  1  0  0  0  0
 13 14  1  0  0  0  0
 14 15  1  0  0  0  0
 15 16  1  0  0  0  0
 15 17  1  0  0  0  0
 16 20  1  0  0  0  0
 17 18  1  0  0  0  0
 17 19  1  0  0  0  0
 19 20  1  0  0  0  0
 20 21  1  0  0  0  0
 21 22  1  0  0  0  0
 21 29  1  0  0  0  0
 22 23  2  0  0  0  0
 22 24  1  0  0  0  0
 24 25  1  0  0  0  0
 25 26  2  0  0  0  0
 25 27  1  0  0  0  0
 27 28  1  0  0  0  0
 27 29  2  0  0  0  0
M  END
>  <InstanceId>
5C2O_TTP_A_704

>  <ChemCompId>
TTP

>  <PdbId>
5C2O

>  <ChainId>
A

>  <ResidueNumber>
704

>  <InsertionCode>


>  <Model>
1

>  <AltIds>


>  <MissingHeavyAtoms>
0

>  <ObservedFormula>
C10 N2 O14 P3

>  <Name>
THYMIDINE-5'-TRIPHOSPHATE

>  <SystematicName>
[(2R,3S,5R)-3-hydroxy-5-(5-methyl-2,4-dioxo-pyrimidin-1-yl)oxolan-2-yl]methyl (hydroxy-phosphonooxy-phosphoryl) hydrogen phosphate

>  <Synonyms>


>  <Type>
NON-POLYMER

>  <Formula>
C10 H17 N2 O14 P3

>  <MolecularWeight>
482.168

>  <ModifiedDate>
2011-06-04

>  <Parent>


>  <OneLetterCode>


>  <SubcomponentList>


>  <AmbiguousFlag>
N

>  <InChI>
InChI=1S/C10H17N2O14P3/c1-5-3-12(10(15)11-9(5)14)8-2-6(13)7(24-8)4-23-28(19,20)26-29(21,22)25-27(16,17)18/h3,6-8,13H,2,4H2,1H3,(H,19,20)(H,21,22)(H,11,14,15)(H2,16,17,18)/t6-,7+,8+/m0/s1

>  <InChIKey>
NHVNXKFIZYSCEB-XLPZGREQSA-N

>  <SMILES>
CC1=CN(C(=O)NC1=O)[C@H]2C[C@@H]([C@H](O2)CO[P@](=O)(O)O[P@@](=O)(O)OP(=O)(O)O)O

$$$$
