4M8X_KGQ_B_101
  RCSB PDB08012022293D
Coordinates from PDB:4M8X:B:101 Model:1 without hydrogens
 49 52  0  0  0  0            999 V2000
  -11.8560   52.4580    2.3110   N 0  0  0  0  0  0  0  0  0  0  0  0
  -13.6770   51.0180   -1.3990   C 0  0  0  0  0  0  0  0  0  0  0  0
  -14.8720   47.1440    2.0770   O 0  0  0  0  0  0  0  0  0  0  0  0
  -11.9460   52.5510    3.8020   C 0  0  0  0  0  0  0  0  0  0  0  0
  -11.5400   51.1580    4.3600   C 0  0  0  0  0  0  0  0  0  0  0  0
  -12.4270   50.0510    3.7580   C 0  0  0  0  0  0  0  0  0  0  0  0
  -11.8690   48.9900    3.0260   C 0  0  0  0  0  0  0  0  0  0  0  0
  -12.6790   48.0050    2.4670   C 0  0  0  0  0  0  0  0  0  0  0  0
  -14.0620   48.0880    2.6330   C 0  0  0  0  0  0  0  0  0  0  0  0
  -15.8510   47.8390    1.2980   C 0  0  0  0  0  0  0  0  0  0  0  0
  -16.7000   46.6300    0.2050   P 0  0  0  0  0  0  0  0  0  0  0  0
  -18.3270   46.8040    0.2770   O 0  0  0  0  0  0  0  0  0  0  0  0
  -19.2180   46.0680    1.1400   C 0  0  0  0  0  0  0  0  0  0  0  0
  -20.0970   47.0590    1.9530   C 0  0  0  0  0  0  0  0  0  0  0  0
  -16.2170   47.1060   -1.2700   O 0  0  0  0  0  0  0  0  0  0  0  0
  -16.0840   45.1440    0.4050   O 0  0  0  0  0  0  0  0  0  0  0  0
  -14.8430   44.8110   -0.2450   C 0  0  0  0  0  0  0  0  0  0  0  0
  -14.5700   43.3070   -0.1260   C 0  0  0  0  0  0  0  0  0  0  0  0
  -14.6230   49.1480    3.3460   C 0  0  0  0  0  0  0  0  0  0  0  0
  -13.8080   50.1210    3.9220   C 0  0  0  0  0  0  0  0  0  0  0  0
  -10.9190   53.5740    4.2660   C 0  0  0  0  0  0  0  0  0  0  0  0
   -9.6880   52.8540    4.2210   O 0  0  0  0  0  0  0  0  0  0  0  0
  -11.1290   54.1590    5.6940   C 0  0  0  0  0  0  0  0  0  0  0  0
  -12.3620   54.9880    5.8710   N 0  0  0  0  0  0  0  0  0  0  0  0
  -12.8770   55.4390    4.5510   C 0  0  0  0  0  0  0  0  0  0  0  0
  -12.6640   56.9360    4.3050   C 0  0  0  0  0  0  0  0  0  0  0  0
  -11.1730   57.2400    4.1880   C 0  0  0  0  0  0  0  0  0  0  0  0
  -13.3080   57.7640    5.4160   C 0  0  0  0  0  0  0  0  0  0  0  0
  -13.5380   54.1110    6.7670   S 0  0  0  0  0  0  0  0  0  0  0  0
  -14.9370   54.4790    6.3460   O 0  0  0  0  0  0  0  0  0  0  0  0
  -13.3500   52.6050    6.6820   O 0  0  0  0  0  0  0  0  0  0  0  0
  -13.3090   54.4190    8.5190   C 0  0  0  0  0  0  0  0  0  0  0  0
  -12.3940   53.6360    9.2430   C 0  0  0  0  0  0  0  0  0  0  0  0
  -12.1990   53.8870   10.6000   C 0  0  0  0  0  0  0  0  0  0  0  0
  -12.9280   54.9050   11.2370   C 0  0  0  0  0  0  0  0  0  0  0  0
  -12.7680   55.1630   12.5720   O 0  0  0  0  0  0  0  0  0  0  0  0
  -12.9760   56.5490   12.8540   C 0  0  0  0  0  0  0  0  0  0  0  0
  -13.8340   55.6670   10.5190   C 0  0  0  0  0  0  0  0  0  0  0  0
  -14.0270   55.4290    9.1580   C 0  0  0  0  0  0  0  0  0  0  0  0
  -12.7530   52.8580    1.3860   C 0  0  0  0  0  0  0  0  0  0  0  0
  -13.8750   53.3640    1.5960   O 0  0  0  0  0  0  0  0  0  0  0  0
  -12.3540   52.6030    0.0880   O 0  0  0  0  0  0  0  0  0  0  0  0
  -13.4380   52.4530   -0.8740   C 0  0  0  0  0  0  0  0  0  0  0  0
  -12.9470   53.1280   -2.1360   C 0  0  0  0  0  0  0  0  0  0  0  0
  -12.0450   52.1520   -2.7240   O 0  0  0  0  0  0  0  0  0  0  0  0
  -12.5930   50.8150   -2.4570   C 0  0  0  0  0  0  0  0  0  0  0  0
  -11.5900   49.9510   -1.8310   O 0  0  0  0  0  0  0  0  0  0  0  0
  -12.2750   49.0990   -0.8820   C 0  0  0  0  0  0  0  0  0  0  0  0
  -13.4500   49.9020   -0.3650   C 0  0  0  0  0  0  0  0  0  0  0  0
  1  4  1  0  0  0  0
  1 40  1  0  0  0  0
  2 49  1  0  0  0  0
  2 43  1  0  0  0  0
  2 46  1  0  0  0  0
  3 10  1  0  0  0  0
  3  9  1  0  0  0  0
  4  5  1  0  0  0  0
  4 21  1  0  0  0  0
  5  6  1  0  0  0  0
  6  7  2  0  0  0  0
  6 20  1  0  0  0  0
  7  8  1  0  0  0  0
  8  9  2  0  0  0  0
  9 19  1  0  0  0  0
 10 11  1  0  0  0  0
 11 16  1  0  0  0  0
 11 12  1  0  0  0  0
 11 15  2  0  0  0  0
 12 13  1  0  0  0  0
 13 14  1  0  0  0  0
 16 17  1  0  0  0  0
 17 18  1  0  0  0  0
 19 20  2  0  0  0  0
 21 23  1  0  0  0  0
 21 22  1  0  0  0  0
 23 24  1  0  0  0  0
 24 29  1  0  0  0  0
 24 25  1  0  0  0  0
 25 26  1  0  0  0  0
 26 28  1  0  0  0  0
 26 27  1  0  0  0  0
 29 31  2  0  0  0  0
 29 32  1  0  0  0  0
 29 30  2  0  0  0  0
 32 39  2  0  0  0  0
 32 33  1  0  0  0  0
 33 34  2  0  0  0  0
 34 35  1  0  0  0  0
 35 36  1  0  0  0  0
 35 38  2  0  0  0  0
 36 37  1  0  0  0  0
 38 39  1  0  0  0  0
 40 41  2  0  0  0  0
 40 42  1  0  0  0  0
 42 43  1  0  0  0  0
 43 44  1  0  0  0  0
 44 45  1  0  0  0  0
 45 46  1  0  0  0  0
 46 47  1  0  0  0  0
 47 48  1  0  0  0  0
 48 49  1  0  0  0  0
M  END
>  <InstanceId>
4M8X_KGQ_B_101

>  <ChemCompId>
KGQ

>  <PdbId>
4M8X

>  <ChainId>
B

>  <ResidueNumber>
101

>  <InsertionCode>


>  <Model>
1

>  <AltIds>


>  <MissingHeavyAtoms>
0

>  <ObservedFormula>
C33 N2 O12 P S

>  <Name>
DIETHYL ({4-[(2S,3R)-2-({[(3R,3AS,6AR)-HEXAHYDROFURO[2,3-B]FURAN-3-YLOXY]CARBONYL}AMINO)-3-HYDROXY-4-{ISOBUTYL[(4-METHOXYPHENYL)SULFONYL]AMINO}BUTYL]PHENOXY}METHYL)PHOSPHONATE

>  <SystematicName>
[(3R,3aS,6aR)-2,3,3a,4,5,6a-hexahydrofuro[3,2-d]furan-3-yl] N-[(2S,3R)-1-[4-(diethoxyphosphorylmethoxy)phenyl]-3-hydroxy-4-[(4-methoxyphenyl)sulfonyl-(2-methylpropyl)amino]butan-2-yl]carbamate

>  <Synonyms>


>  <Type>
NON-POLYMER

>  <Formula>
C33 H49 N2 O12 P S

>  <MolecularWeight>
728.787

>  <ModifiedDate>
2011-06-04

>  <Parent>


>  <OneLetterCode>


>  <SubcomponentList>


>  <AmbiguousFlag>


>  <InChI>
InChI=1S/C33H49N2O12PS/c1-6-45-48(38,46-7-2)22-44-26-10-8-24(9-11-26)18-29(34-33(37)47-31-21-43-32-28(31)16-17-42-32)30(36)20-35(19-23(3)4)49(39,40)27-14-12-25(41-5)13-15-27/h8-15,23,28-32,36H,6-7,16-22H2,1-5H3,(H,34,37)/t28-,29-,30+,31-,32+/m0/s1

>  <InChIKey>
FCLYPCIMVVLLRN-FXSYQQGGSA-N

>  <SMILES>
CCOP(=O)(COc1ccc(cc1)C[C@@H]([C@@H](C[N@](CC(C)C)S(=O)(=O)c2ccc(cc2)OC)O)NC(=O)O[C@H]3CO[C@@H]4[C@H]3CCO4)OCC

$$$$
