5OA6_9PT_A_601
  RCSB PDB08022002393D
Coordinates from PDB:5OA6:A:601 Model:1 without hydrogens
 51 56  0  0  0  0            999 V2000
   10.7750  -10.6970  -24.4200   C 0  0  0  0  0  0  0  0  0  0  0  0
   10.1340   -9.3170  -24.5460   C 0  0  0  0  0  0  0  0  0  0  0  0
    9.4580   -8.9610  -25.8620   C 0  0  0  0  0  0  0  0  0  0  0  0
   11.2510  -10.8510  -22.9790   C 0  0  0  0  0  0  0  0  0  0  0  0
    4.8570   -8.3520  -16.1460   C 0  0  0  0  0  0  0  0  0  0  0  0
    4.9030   -8.5160  -14.7660   C 0  0  0  0  0  0  0  0  0  0  0  0
    3.8720   -8.0160  -13.9870   C 0  0  0  0  0  0  0  0  0  0  0  0
    2.8080   -7.3500  -14.5910   C 0  0  0  0  0  0  0  0  0  0  0  0
    1.7950   -6.8640  -13.7590   C 0  0  0  0  0  0  0  0  0  0  0  0
    0.7020   -6.1930  -14.2990   C 0  0  0  0  0  0  0  0  0  0  0  0
    0.6250   -6.0110  -15.6760   C 0  0  0  0  0  0  0  0  0  0  0  0
    1.6350   -6.4980  -16.5170   C 0  0  0  0  0  0  0  0  0  0  0  0
    2.7520   -7.1800  -15.9950   C 0  0  0  0  0  0  0  0  0  0  0  0
    3.7600   -7.6720  -16.7880   N 0  3  0  0  0  0  0  0  0  0  0  0
    3.7110   -7.4920  -18.2710   C 0  0  0  0  0  0  0  0  0  0  0  0
    4.8760   -8.2260  -18.9260   C 0  0  0  0  0  0  0  0  0  0  0  0
    4.9590   -7.7910  -20.3740   C 0  0  0  0  0  0  0  0  0  0  0  0
    6.1440   -8.6010  -20.9510   C 0  0  0  0  0  0  0  0  0  0  0  0
    7.3510   -8.1640  -21.2870   C 0  0  0  0  0  0  0  0  0  0  0  0
    6.1050   -9.9070  -21.1910   N 0  0  0  0  0  0  0  0  0  0  0  0
    7.1820  -10.2520  -21.6460   N 0  0  0  0  0  0  0  0  0  0  0  0
    7.9910   -9.2550  -21.7190   N 0  0  0  0  0  0  0  0  0  0  0  0
    9.3660   -9.3530  -22.2680   C 0  0  0  0  0  0  0  0  0  0  0  0
   10.0750  -10.6860  -22.0120   C 0  0  0  0  0  0  0  0  0  0  0  0
   10.5380  -10.6940  -20.6740   O 0  0  0  0  0  0  0  0  0  0  0  0
    9.0440   -9.2360  -23.6400   O 0  0  0  0  0  0  0  0  0  0  0  0
    9.5800  -10.0480  -26.7690   O 0  0  0  0  0  0  0  0  0  0  0  0
   11.9030  -10.8550  -25.3110   O 0  0  0  0  0  0  0  0  0  0  0  0
   11.7910  -12.1670  -22.8470   O 0  0  0  0  0  0  0  0  0  0  0  0
   12.9960  -12.2630  -22.0960   C 0  0  0  0  0  0  0  0  0  0  0  0
   13.3170  -13.7450  -21.8830   C 0  0  0  0  0  0  0  0  0  0  0  0
   12.2790  -14.3250  -21.0970   O 0  0  0  0  0  0  0  0  0  0  0  0
   14.0450  -11.6700  -22.8430   O 0  0  0  0  0  0  0  0  0  0  0  0
   15.3030  -11.6550  -22.1390   C 0  0  0  0  0  0  0  0  0  0  0  0
   16.2120  -10.8450  -23.0530   C 0  0  0  0  0  0  0  0  0  0  0  0
   16.6740  -11.6780  -24.1290   O 0  0  0  0  0  0  0  0  0  0  0  0
   15.7540  -13.1070  -21.8790   C 0  0  0  0  0  0  0  0  0  0  0  0
   16.9110  -13.1040  -21.0510   O 0  0  0  0  0  0  0  0  0  0  0  0
   14.6440  -13.8620  -21.1490   C 0  0  0  0  0  0  0  0  0  0  0  0
   15.0240  -15.2500  -21.0590   O 0  0  0  0  0  0  0  0  0  0  0  0
   14.8140  -15.8140  -19.7460   C 0  0  0  0  0  0  0  0  0  0  0  0
   15.6070  -15.1210  -18.7640   O 0  0  0  0  0  0  0  0  0  0  0  0
   15.3490  -15.6040  -17.4180   C 0  0  0  0  0  0  0  0  0  0  0  0
   16.0860  -14.8340  -16.3310   C 0  0  0  0  0  0  0  0  0  0  0  0
   17.4100  -14.6260  -16.8440   O 0  0  0  0  0  0  0  0  0  0  0  0
   15.7630  -17.1110  -17.3390   C 0  0  0  0  0  0  0  0  0  0  0  0
   15.3950  -17.6570  -16.0450   O 0  0  0  0  0  0  0  0  0  0  0  0
   15.0810  -17.9330  -18.4350   C 0  0  0  0  0  0  0  0  0  0  0  0
   15.6790  -19.2460  -18.5000   O 0  0  0  0  0  0  0  0  0  0  0  0
   15.2590  -17.2700  -19.7950   C 0  0  0  0  0  0  0  0  0  0  0  0
   14.4990  -17.9910  -20.7550   O 0  0  0  0  0  0  0  0  0  0  0  0
 27  3  1  0  0  0  0
  3  2  1  0  0  0  0
 28  1  1  0  0  0  0
  2  1  1  0  0  0  0
  2 26  1  0  0  0  0
  1  4  1  0  0  0  0
 36 35  1  0  0  0  0
 26 23  1  0  0  0  0
 35 34  1  0  0  0  0
  4 29  1  0  0  0  0
  4 24  1  0  0  0  0
 29 30  1  0  0  0  0
 33 34  1  0  0  0  0
 33 30  1  0  0  0  0
 23 24  1  0  0  0  0
 23 22  1  0  0  0  0
 34 37  1  0  0  0  0
 30 31  1  0  0  0  0
 24 25  1  0  0  0  0
 31 39  1  0  0  0  0
 31 32  1  0  0  0  0
 37 39  1  0  0  0  0
 37 38  1  0  0  0  0
 22 21  1  0  0  0  0
 22 19  1  0  0  0  0
 21 20  2  0  0  0  0
 19 18  2  0  0  0  0
 20 18  1  0  0  0  0
 39 40  1  0  0  0  0
 40 41  1  0  0  0  0
 18 17  1  0  0  0  0
 51 50  1  0  0  0  0
 17 16  1  0  0  0  0
 50 41  1  0  0  0  0
 50 48  1  0  0  0  0
 41 42  1  0  0  0  0
 16 15  1  0  0  0  0
 42 43  1  0  0  0  0
 49 48  1  0  0  0  0
 48 46  1  0  0  0  0
 15 14  1  0  0  0  0
 43 46  1  0  0  0  0
 43 44  1  0  0  0  0
 46 47  1  0  0  0  0
 45 44  1  0  0  0  0
 14  5  2  0  0  0  0
 14 13  1  0  0  0  0
 12 13  2  0  0  0  0
 12 11  1  0  0  0  0
  5  6  1  0  0  0  0
 13  8  1  0  0  0  0
 11 10  2  0  0  0  0
  6  7  2  0  0  0  0
  8  7  1  0  0  0  0
  8  9  2  0  0  0  0
 10  9  1  0  0  0  0
M  CHG  1  14   1
M  END
>  <InstanceId>
5OA6_9PT_A_601

>  <ChemCompId>
9PT

>  <PdbId>
5OA6

>  <ChainId>
A

>  <ResidueNumber>
601

>  <InsertionCode>


>  <Model>
1

>  <AltIds>


>  <MissingHeavyAtoms>
0

>  <ObservedFormula>
C32 N4 O15

>  <Name>
(2~{R},3~{S},4~{S},5~{R},6~{S})-2-(hydroxymethyl)-6-[(2~{R},3~{R},4~{S},5~{R},6~{S})-2-(hydroxymethyl)-6-[(2~{R},3~{R},4~{S},5~{R},6~{R})-2-(hydroxymethyl)-3,5-bis(oxidanyl)-6-[4-(3-quinolin-1-ium-1-ylpropyl)-1,2,3-triazol-1-yl]oxan-4-yl]oxy-3,5-bis(oxidanyl)oxan-4-yl]oxy-oxane-3,4,5-triol

>  <SystematicName>
(2~{R},3~{S},4~{S},5~{R},6~{S})-2-(hydroxymethyl)-6-[(2~{R},3~{R},4~{S},5~{R},6~{S})-2-(hydroxymethyl)-6-[(2~{R},3~{R},4~{S},5~{R},6~{R})-2-(hydroxymethyl)-3,5-bis(oxidanyl)-6-[4-(3-quinolin-1-ium-1-ylpropyl)-1,2,3-triazol-1-yl]oxan-4-yl]oxy-3,5-bis(oxidanyl)oxan-4-yl]oxy-oxane-3,4,5-triol

>  <Synonyms>


>  <Type>
NON-POLYMER

>  <Formula>
C32 H45 N4 O15

>  <MolecularWeight>
725.717

>  <ModifiedDate>
2018-04-27

>  <Parent>


>  <OneLetterCode>


>  <SubcomponentList>


>  <AmbiguousFlag>
N

>  <InChI>
InChI=1S/C32H45N4O15/c37-12-18-21(40)24(43)25(44)31(48-18)51-29-23(42)20(14-39)49-32(27(29)46)50-28-22(41)19(13-38)47-30(26(28)45)36-11-16(33-34-36)7-4-10-35-9-3-6-15-5-1-2-8-17(15)35/h1-3,5-6,8-9,11,18-32,37-46H,4,7,10,12-14H2/q+1/t18-,19-,20-,21-,22-,23-,24+,25-,26-,27-,28+,29+,30-,31+,32+/m1/s1

>  <InChIKey>
ZDLMHTZQWQBSDO-DGUZUYFASA-N

>  <SMILES>
c1ccc2c(c1)ccc[n+]2CCCc3cn(nn3)[C@H]4[C@@H]([C@H]([C@@H]([C@H](O4)CO)O)O[C@H]5[C@@H]([C@H]([C@@H]([C@H](O5)CO)O)O[C@H]6[C@@H]([C@H]([C@@H]([C@H](O6)CO)O)O)O)O)O

$$$$
