5GMH_RX8_A_901
  RCSB PDB08022001303D
Coordinates from PDB:5GMH:A:901 Model:1 without hydrogens
 23 25  0  0  0  0            999 V2000
  -14.5760  -30.8540  -10.7840   O 0  0  0  0  0  0  0  0  0  0  0  0
  -15.8700  -30.3480  -10.7320   C 0  0  0  0  0  0  0  0  0  0  0  0
  -15.9010  -29.9930   -9.2700   C 0  0  0  0  0  0  0  0  0  0  0  0
  -16.8260  -31.5300  -10.9130   C 0  0  0  0  0  0  0  0  0  0  0  0
  -16.1440  -29.2570  -11.8360   C 0  0  0  0  0  0  0  0  0  0  0  0
  -15.1220  -28.2080  -11.8270   N 0  0  0  0  0  0  0  0  0  0  0  0
  -15.1590  -27.2380  -10.9080   C 0  0  0  0  0  0  0  0  0  0  0  0
  -16.2740  -26.9340   -9.9720   C 0  0  0  0  0  0  0  0  0  0  0  0
  -17.3130  -26.1730  -10.5800   O 0  0  0  0  0  0  0  0  0  0  0  0
  -17.5530  -26.0230  -11.9550   C 0  0  0  0  0  0  0  0  0  0  0  0
  -18.9050  -25.5470  -12.4200   C 0  0  0  0  0  0  0  0  0  0  0  0
  -14.1010  -26.4630  -11.0330   N 0  0  0  0  0  0  0  0  0  0  0  0
  -13.3000  -26.9950  -11.9960   C 0  0  0  0  0  0  0  0  0  0  0  0
  -12.0270  -26.5680  -12.4860   C 0  0  0  0  0  0  0  0  0  0  0  0
  -11.4740  -25.4480  -11.8540   N 0  0  0  0  0  0  0  0  0  0  0  0
  -13.9340  -28.1010  -12.5370   C 0  0  0  0  0  0  0  0  0  0  0  0
  -13.2620  -28.7940  -13.6310   C 0  0  0  0  0  0  0  0  0  0  0  0
  -13.8270  -29.9490  -14.2230   C 0  0  0  0  0  0  0  0  0  0  0  0
  -13.1750  -30.5800  -15.2770   C 0  0  0  0  0  0  0  0  0  0  0  0
  -11.9470  -30.1170  -15.7110   C 0  0  0  0  0  0  0  0  0  0  0  0
  -11.3560  -28.9720  -15.1370   C 0  0  0  0  0  0  0  0  0  0  0  0
  -12.0450  -28.3090  -14.0830   C 0  0  0  0  0  0  0  0  0  0  0  0
  -11.4350  -27.1650  -13.5210   N 0  0  0  0  0  0  0  0  0  0  0  0
 15 14  1  0  0  0  0
 14 23  2  0  0  0  0
 14 13  1  0  0  0  0
 23 22  1  0  0  0  0
 13 12  1  0  0  0  0
 13 16  2  0  0  0  0
 12  7  2  0  0  0  0
 22 21  2  0  0  0  0
 22 17  1  0  0  0  0
 21 20  1  0  0  0  0
 10 11  1  0  0  0  0
 10  9  1  0  0  0  0
 16 17  1  0  0  0  0
 16  6  1  0  0  0  0
  7  8  1  0  0  0  0
  7  6  1  0  0  0  0
 17 18  2  0  0  0  0
  8  9  1  0  0  0  0
 20 19  2  0  0  0  0
  6  5  1  0  0  0  0
 18 19  1  0  0  0  0
  5  2  1  0  0  0  0
  1  2  1  0  0  0  0
  2  4  1  0  0  0  0
  2  3  1  0  0  0  0
M  END
>  <InstanceId>
5GMH_RX8_A_901

>  <ChemCompId>
RX8

>  <PdbId>
5GMH

>  <ChainId>
A

>  <ResidueNumber>
901

>  <InsertionCode>


>  <Model>
1

>  <AltIds>


>  <MissingHeavyAtoms>
0

>  <ObservedFormula>
C17 N4 O2

>  <Name>
1-[4-amino-2-(ethoxymethyl)-1H-imidazo[4,5-c]quinolin-1-yl]-2-methylpropan-2-ol

>  <SystematicName>
1-[4-azanyl-2-(ethoxymethyl)imidazo[4,5-c]quinolin-1-yl]-2-methyl-propan-2-ol

>  <Synonyms>
R848, Resiquimod

>  <Type>
NON-POLYMER

>  <Formula>
C17 H22 N4 O2

>  <MolecularWeight>
314.382

>  <ModifiedDate>
2013-03-29

>  <Parent>


>  <OneLetterCode>


>  <SubcomponentList>


>  <AmbiguousFlag>
N

>  <InChI>
InChI=1S/C17H22N4O2/c1-4-23-9-13-20-14-15(21(13)10-17(2,3)22)11-7-5-6-8-12(11)19-16(14)18/h5-8,22H,4,9-10H2,1-3H3,(H2,18,19)

>  <InChIKey>
BXNMTOQRYBFHNZ-UHFFFAOYSA-N

>  <SMILES>
CCOCc1nc2c(n1CC(C)(C)O)c3ccccc3nc2N

$$$$
