3M1K_BEW_A_502
  RCSB PDB08012019453D
Coordinates from PDB:3M1K:A:502 Model:1 without hydrogens
  8  8  0  0  0  0            999 V2000
   16.0340    5.3620   14.1620   C 0  0  0  0  0  0  0  0  0  0  0  0
   15.2370    5.7810   15.2240   C 0  0  0  0  0  0  0  0  0  0  0  0
   14.8830    4.8190   16.1930   C 0  0  0  0  0  0  0  0  0  0  0  0
   16.1430    3.1340   14.9520   N 0  3  0  0  0  0  0  0  0  0  0  0
   16.5940    1.7090   14.8620   O 0  0  0  0  0  0  0  0  0  0  0  0
   16.4830    4.0380   14.0310   C 0  0  0  0  0  0  0  0  0  0  0  0
   15.3640    3.5350   15.9960   C 0  0  0  0  0  0  0  0  0  0  0  0
   15.0190    2.1950   17.1130   S 0  0  0  0  0  0  0  0  0  0  0  0
  1  2  2  0  0  0  0
  1  6  1  0  0  0  0
  2  3  1  0  0  0  0
  3  7  2  0  0  0  0
  4  5  1  0  0  0  0
  4  6  2  0  0  0  0
  4  7  1  0  0  0  0
  7  8  1  0  0  0  0
M  CHG  1   4   1
M  END
>  <InstanceId>
3M1K_BEW_A_502

>  <ChemCompId>
BEW

>  <PdbId>
3M1K

>  <ChainId>
A

>  <ResidueNumber>
502

>  <InsertionCode>


>  <Model>
1

>  <AltIds>


>  <MissingHeavyAtoms>
0

>  <ObservedFormula>
C5 N O S

>  <Name>
1-hydroxy-2-sulfanylpyridinium

>  <SystematicName>
1-hydroxypyridin-1-ium-2-thiol

>  <Synonyms>


>  <Type>
NON-POLYMER

>  <Formula>
C5 H6 N O S

>  <MolecularWeight>
128.172

>  <ModifiedDate>
2011-06-04

>  <Parent>


>  <OneLetterCode>


>  <SubcomponentList>


>  <AmbiguousFlag>
N

>  <InChI>
InChI=1S/C5H5NOS/c7-6-4-2-1-3-5(6)8/h1-4,7H/p+1

>  <InChIKey>
YBBJKCMMCRQZMA-UHFFFAOYSA-O

>  <SMILES>
c1cc[n+](c(c1)S)O

$$$$
