6AYR_BIG_A_301
  RCSB PDB08022003593D
Coordinates from PDB:6AYR:A:301 Model:1 without hydrogens
 23 25  0  0  0  0            999 V2000
   67.9330   18.6050   38.2600   C 0  0  0  0  0  0  0  0  0  0  0  0
   65.2120   18.6630   38.8030   C 0  0  0  0  0  0  0  0  0  0  0  0
   66.0260   17.4520   38.9330   C 0  0  0  0  0  0  0  0  0  0  0  0
   63.8900   17.0290   39.5090   C 0  0  0  0  0  0  0  0  0  0  0  0
   67.6910   13.4180   42.8010   O 0  0  0  0  0  0  0  0  0  0  0  0
   67.8410   14.7700   42.3660   C 0  0  0  0  0  0  0  0  0  0  0  0
   66.7450   15.5910   42.9970   C 0  0  0  0  0  0  0  0  0  0  0  0
   66.9180   17.1030   42.9110   C 0  0  0  0  0  0  0  0  0  0  0  0
   68.0890   17.6760   44.0900   S 0  0  0  0  0  0  0  0  0  0  0  0
   67.1200   17.7520   45.5660   C 0  0  0  0  0  0  0  0  0  0  0  0
   67.9730   18.1420   46.7600   C 0  0  0  0  0  0  0  0  0  0  0  0
   67.0840   18.4320   47.9650   C 0  0  0  0  0  0  0  0  0  0  0  0
   67.9390   18.7950   49.1590   C 0  0  0  0  0  0  0  0  0  0  0  0
   65.5220   15.1410   42.1990   C 0  0  0  0  0  0  0  0  0  0  0  0
   66.0480   14.5510   40.9520   N 0  0  0  0  0  0  0  0  0  0  0  0
   67.5210   14.7880   40.8990   C 0  0  0  0  0  0  0  0  0  0  0  0
   65.3550   14.9200   39.7210   C 0  0  0  0  0  0  0  0  0  0  0  0
   63.9530   18.3380   39.1440   N 0  0  0  0  0  0  0  0  0  0  0  0
   65.9300   19.8780   38.3220   C 0  0  0  0  0  0  0  0  0  0  0  0
   65.3050   21.0600   38.1370   N 0  0  0  0  0  0  0  0  0  0  0  0
   67.3580   17.4570   38.6700   N 0  0  0  0  0  0  0  0  0  0  0  0
   65.1300   16.3880   39.4230   C 0  0  0  0  0  0  0  0  0  0  0  0
   67.2520   19.7660   38.0840   N 0  0  0  0  0  0  0  0  0  0  0  0
  1 21  2  0  0  0  0
  1 23  1  0  0  0  0
  2  3  2  0  0  0  0
  2 18  1  0  0  0  0
  2 19  1  0  0  0  0
  3 21  1  0  0  0  0
  3 22  1  0  0  0  0
  4 18  1  0  0  0  0
  4 22  2  0  0  0  0
  5  6  1  0  0  0  0
  6  7  1  0  0  0  0
  6 16  1  0  0  0  0
  7  8  1  0  0  0  0
  7 14  1  0  0  0  0
  8  9  1  0  0  0  0
  9 10  1  0  0  0  0
 10 11  1  0  0  0  0
 11 12  1  0  0  0  0
 12 13  1  0  0  0  0
 14 15  1  0  0  0  0
 15 16  1  0  0  0  0
 15 17  1  0  0  0  0
 17 22  1  0  0  0  0
 19 20  1  0  0  0  0
 19 23  2  0  0  0  0
M  END
>  <InstanceId>
6AYR_BIG_A_301

>  <ChemCompId>
BIG

>  <PdbId>
6AYR

>  <ChainId>
A

>  <ResidueNumber>
301

>  <InsertionCode>


>  <Model>
1

>  <AltIds>


>  <MissingHeavyAtoms>
0

>  <ObservedFormula>
C16 N5 O S

>  <Name>
(3R,4S)-1-[(4-amino-5H-pyrrolo[3,2-d]pyrimidin-7-yl)methyl]-4-[(butylsulfanyl)methyl]pyrrolidin-3-ol

>  <SystematicName>
(1S,3R,4S)-1-[(4-amino-5H-pyrrolo[5,4-e]pyrimidin-7-yl)methyl]-4-(butylsulfanylmethyl)pyrrolidin-3-ol

>  <Synonyms>
butylthio-DADMe-Immucillin A

>  <Type>
NON-POLYMER

>  <Formula>
C16 H25 N5 O S

>  <MolecularWeight>
335.468

>  <ModifiedDate>
2011-06-04

>  <Parent>


>  <OneLetterCode>


>  <SubcomponentList>


>  <AmbiguousFlag>
N

>  <InChI>
InChI=1S/C16H25N5OS/c1-2-3-4-23-9-12-7-21(8-13(12)22)6-11-5-18-15-14(11)19-10-20-16(15)17/h5,10,12-13,18,22H,2-4,6-9H2,1H3,(H2,17,19,20)/t12-,13+/m1/s1

>  <InChIKey>
LTSUEVPGSXUJHT-OLZOCXBDSA-N

>  <SMILES>
CCCCSC[C@H]1C[N@](C[C@@H]1O)Cc2c[nH]c3c2ncnc3N

$$$$
