3HKQ_1SD_A_300
  RCSB PDB08012019133D
Coordinates from PDB:3HKQ:A:300 Model:1 without hydrogens
 15 15  0  0  0  0            999 V2000
   17.0460    2.1500   13.8140   O 0  0  0  0  0  0  0  0  0  0  0  0
   16.5600    3.4770   14.0360   C 0  0  0  0  0  0  0  0  0  0  0  0
   17.2540    4.4430   13.0750   C 0  0  0  0  0  0  0  0  0  0  0  0
   16.8650    4.1410   11.7320   O 0  0  0  0  0  0  0  0  0  0  0  0
   16.8400    5.8770   13.4070   C 0  0  0  0  0  0  0  0  0  0  0  0
   15.4430    6.0370   13.1470   O 0  0  0  0  0  0  0  0  0  0  0  0
   17.1130    6.1610   14.8850   C 0  0  0  0  0  0  0  0  0  0  0  0
   16.6930    7.5940   15.2180   C 0  0  0  0  0  0  0  0  0  0  0  0
   15.2970    7.7540   14.9570   O 0  0  0  0  0  0  0  0  0  0  0  0
   16.3620    5.2370   15.6880   O 0  0  0  0  0  0  0  0  0  0  0  0
   16.8230    3.8910   15.4860   C 0  0  0  0  0  0  0  0  0  0  0  0
   15.9190    2.7790   16.6260   S 0  0  0  0  0  0  0  0  0  0  0  0
   16.3670    3.0430   18.0330   O 0  0  0  0  0  0  0  0  0  0  0  0
   14.4450    3.0350   16.5230   O 0  0  0  0  0  0  0  0  0  0  0  0
   16.2440    1.2300   16.2370   N 0  0  0  0  0  0  0  0  0  0  0  0
  1  2  1  0  0  0  0
  2  3  1  0  0  0  0
  2 11  1  0  0  0  0
  3  4  1  0  0  0  0
  3  5  1  0  0  0  0
  5  6  1  0  0  0  0
  5  7  1  0  0  0  0
  7  8  1  0  0  0  0
  7 10  1  0  0  0  0
  8  9  1  0  0  0  0
 10 11  1  0  0  0  0
 11 12  1  0  0  0  0
 12 13  2  0  0  0  0
 12 14  2  0  0  0  0
 12 15  1  0  0  0  0
M  END
>  <InstanceId>
3HKQ_1SD_A_300

>  <ChemCompId>
1SD

>  <PdbId>
3HKQ

>  <ChainId>
A

>  <ResidueNumber>
300

>  <InsertionCode>


>  <Model>
1

>  <AltIds>


>  <MissingHeavyAtoms>
0

>  <ObservedFormula>
C6 N O7 S

>  <Name>
(1S)-1,5-anhydro-1-sulfamoyl-D-galactitol

>  <SystematicName>
(2S,3R,4S,5R,6R)-3,4,5-trihydroxy-6-(hydroxymethyl)oxane-2-sulfonamide

>  <Synonyms>
(2S,3R,4S,5R,6R)-3,4,5-trihydroxy-6-(hydroxymethyl)oxane-2-sulfonamide; (1S)-D-Galactopyranosylsulfonamide

>  <Type>
D-saccharide

>  <Formula>
C6 H13 N O7 S

>  <MolecularWeight>
243.235

>  <ModifiedDate>
2020-07-17

>  <Parent>


>  <OneLetterCode>


>  <SubcomponentList>


>  <AmbiguousFlag>
N

>  <InChI>
InChI=1S/C6H13NO7S/c7-15(12,13)6-5(11)4(10)3(9)2(1-8)14-6/h2-6,8-11H,1H2,(H2,7,12,13)/t2-,3+,4+,5-,6+/m1/s1

>  <InChIKey>
OQMMAWGZUDHRTA-PHYPRBDBSA-N

>  <SMILES>
C([C@@H]1[C@@H]([C@@H]([C@H]([C@@H](O1)S(=O)(=O)N)O)O)O)O

$$$$
