3CYW_017_A_201
  RCSB PDB08012018473D
Coordinates from PDB:3CYW:A:201 Model:1 without hydrogens
 38 41  0  0  0  0            999 V2000
   -8.2350   14.0110  -13.7680   N 0  0  0  0  0  0  0  0  0  0  0  0
   -8.8780   15.1720  -14.1570   C 0  0  0  0  0  0  0  0  0  0  0  0
  -10.2020   15.3840  -13.7750   C 0  0  0  0  0  0  0  0  0  0  0  0
  -10.8580   16.5540  -14.1130   C 0  0  0  0  0  0  0  0  0  0  0  0
  -10.1630   17.5140  -14.8190   C 0  0  0  0  0  0  0  0  0  0  0  0
   -8.8550   17.3280  -15.2550   C 0  0  0  0  0  0  0  0  0  0  0  0
   -8.2140   16.1520  -14.9180   C 0  0  0  0  0  0  0  0  0  0  0  0
  -11.1180   18.9150  -15.3270   S 0  0  0  0  0  0  0  0  0  0  0  0
  -12.2910   19.0350  -14.4680   O 0  0  0  0  0  0  0  0  0  0  0  0
  -10.1960   20.0460  -15.4810   O 0  0  0  0  0  0  0  0  0  0  0  0
  -11.6850   18.6660  -16.9020   N 0  0  0  0  0  0  0  0  0  0  0  0
  -10.7030   18.4250  -17.9650   C 0  0  0  0  0  0  0  0  0  0  0  0
  -11.0630   19.0160  -19.3430   C 0  0  0  0  0  0  0  0  0  0  0  0
  -11.1660   20.5370  -19.2910   C 0  0  0  0  0  0  0  0  0  0  0  0
   -9.9560   18.5960  -20.3270   C 0  0  0  0  0  0  0  0  0  0  0  0
  -12.9830   17.9880  -17.0280   C 0  0  0  0  0  0  0  0  0  0  0  0
  -14.0730   18.8800  -17.6690   C 0  0  0  0  0  0  0  0  0  0  0  0
  -15.1670   18.0290  -18.0410   O 0  0  0  0  0  0  0  0  0  0  0  0
  -14.5780   19.9600  -16.6990   C 0  0  0  0  0  0  0  0  0  0  0  0
  -15.4260   20.9000  -17.4050   N 0  0  0  0  0  0  0  0  0  0  0  0
  -15.0890   22.1880  -17.6540   C 0  0  0  0  0  0  0  0  0  0  0  0
  -14.1060   22.7850  -17.2710   O 0  0  0  0  0  0  0  0  0  0  0  0
  -16.0690   22.7100  -18.4370   O 0  0  0  0  0  0  0  0  0  0  0  0
  -15.9930   24.1280  -18.7240   C 0  0  0  0  0  0  0  0  0  0  0  0
  -16.5600   24.3260  -20.1280   C 0  0  0  0  0  0  0  0  0  0  0  0
  -17.9690   24.2400  -19.9500   O 0  0  0  0  0  0  0  0  0  0  0  0
  -18.3400   24.7790  -18.6730   C 0  0  0  0  0  0  0  0  0  0  0  0
  -19.2150   23.9090  -18.0260   O 0  0  0  0  0  0  0  0  0  0  0  0
  -18.5150   23.2650  -16.9650   C 0  0  0  0  0  0  0  0  0  0  0  0
  -17.4020   24.2250  -16.5040   C 0  0  0  0  0  0  0  0  0  0  0  0
  -17.0370   24.8750  -17.8430   C 0  0  0  0  0  0  0  0  0  0  0  0
  -15.2400   19.4670  -15.3920   C 0  0  0  0  0  0  0  0  0  0  0  0
  -16.9260   21.0770  -14.3930   C 0  0  0  0  0  0  0  0  0  0  0  0
  -17.2700   22.1470  -13.5750   C 0  0  0  0  0  0  0  0  0  0  0  0
  -16.2730   22.8350  -12.8840   C 0  0  0  0  0  0  0  0  0  0  0  0
  -14.9430   22.4060  -12.9540   C 0  0  0  0  0  0  0  0  0  0  0  0
  -14.6490   21.2560  -13.6660   C 0  0  0  0  0  0  0  0  0  0  0  0
  -15.6090   20.6310  -14.4770   C 0  0  0  0  0  0  0  0  0  0  0  0
  1  2  1  0  0  0  0
  2  3  2  0  0  0  0
  2  7  1  0  0  0  0
  3  4  1  0  0  0  0
  4  5  2  0  0  0  0
  5  6  1  0  0  0  0
  5  8  1  0  0  0  0
  6  7  2  0  0  0  0
  8  9  2  0  0  0  0
  8 10  2  0  0  0  0
  8 11  1  0  0  0  0
 11 12  1  0  0  0  0
 11 16  1  0  0  0  0
 12 13  1  0  0  0  0
 13 14  1  0  0  0  0
 13 15  1  0  0  0  0
 16 17  1  0  0  0  0
 17 18  1  0  0  0  0
 17 19  1  0  0  0  0
 19 20  1  0  0  0  0
 19 32  1  0  0  0  0
 20 21  1  0  0  0  0
 21 22  2  0  0  0  0
 21 23  1  0  0  0  0
 23 24  1  0  0  0  0
 24 25  1  0  0  0  0
 24 31  1  0  0  0  0
 25 26  1  0  0  0  0
 26 27  1  0  0  0  0
 27 28  1  0  0  0  0
 27 31  1  0  0  0  0
 28 29  1  0  0  0  0
 29 30  1  0  0  0  0
 30 31  1  0  0  0  0
 32 38  1  0  0  0  0
 33 34  2  0  0  0  0
 33 38  1  0  0  0  0
 34 35  1  0  0  0  0
 35 36  2  0  0  0  0
 36 37  1  0  0  0  0
 37 38  2  0  0  0  0
M  END
>  <InstanceId>
3CYW_017_A_201

>  <ChemCompId>
017

>  <PdbId>
3CYW

>  <ChainId>
A

>  <ResidueNumber>
201

>  <InsertionCode>


>  <Model>
1

>  <AltIds>


>  <MissingHeavyAtoms>
0

>  <ObservedFormula>
C27 N3 O7 S

>  <Name>
(3R,3AS,6AR)-HEXAHYDROFURO[2,3-B]FURAN-3-YL(1S,2R)-3-[[(4-AMINOPHENYL)SULFONYL](ISOBUTYL)AMINO]-1-BENZYL-2-HYDROXYPROPYLCARBAMATE

>  <SystematicName>
[(3R,3aS,6aR)-2,3,3a,4,5,6a-hexahydrofuro[2,3-b]furan-3-yl] N-[(2S,3R)-4-[(4-aminophenyl)sulfonyl-(2-methylpropyl)amino]-3-hydroxy-1-phenyl-butan-2-yl]carbamate

>  <Synonyms>
Darunavir; TMC114; UIC-94017

>  <Type>
NON-POLYMER

>  <Formula>
C27 H37 N3 O7 S

>  <MolecularWeight>
547.664

>  <ModifiedDate>
2020-05-22

>  <Parent>


>  <OneLetterCode>


>  <SubcomponentList>


>  <AmbiguousFlag>
N

>  <InChI>
InChI=1S/C27H37N3O7S/c1-18(2)15-30(38(33,34)21-10-8-20(28)9-11-21)16-24(31)23(14-19-6-4-3-5-7-19)29-27(32)37-25-17-36-26-22(25)12-13-35-26/h3-11,18,22-26,31H,12-17,28H2,1-2H3,(H,29,32)/t22-,23-,24+,25-,26+/m0/s1

>  <InChIKey>
CJBJHOAVZSMMDJ-HEXNFIEUSA-N

>  <SMILES>
CC(C)C[N@@](C[C@H]([C@H](Cc1ccccc1)NC(=O)O[C@H]2CO[C@@H]3[C@H]2CCO3)O)S(=O)(=O)c4ccc(cc4)N

$$$$
