3GVU_STI_A_1001
  RCSB PDB08012019093D
Coordinates from PDB:3GVU:A:1001 Model:1 without hydrogens
 37 41  0  0  0  0            999 V2000
    6.5740    7.6540   23.3390   C 0  0  0  0  0  0  0  0  0  0  0  0
    7.4130    8.3860   22.5000   C 0  0  0  0  0  0  0  0  0  0  0  0
    8.4740    7.7180   21.8660   C 0  0  0  0  0  0  0  0  0  0  0  0
    8.6330    6.3510   22.1020   C 0  0  0  0  0  0  0  0  0  0  0  0
    7.8150    5.6800   22.9090   N 0  0  0  0  0  0  0  0  0  0  0  0
    6.8080    6.2840   23.5180   C 0  0  0  0  0  0  0  0  0  0  0  0
    9.3520    8.3900   21.0090   C 0  0  0  0  0  0  0  0  0  0  0  0
    9.1360    9.7250   20.6710   C 0  0  0  0  0  0  0  0  0  0  0  0
   10.0430   10.3330   19.8050   C 0  0  0  0  0  0  0  0  0  0  0  0
   11.0820    9.6760   19.3270   N 0  0  0  0  0  0  0  0  0  0  0  0
   11.2910    8.4030   19.6710   C 0  0  0  0  0  0  0  0  0  0  0  0
   10.4260    7.7590   20.4800   N 0  0  0  0  0  0  0  0  0  0  0  0
   12.3370    7.7430   19.1900   N 0  0  0  0  0  0  0  0  0  0  0  0
   13.1720    8.2180   18.2450   C 0  0  0  0  0  0  0  0  0  0  0  0
   12.8640    8.1260   16.9010   C 0  0  0  0  0  0  0  0  0  0  0  0
   13.7850    8.5730   15.9640   C 0  0  0  0  0  0  0  0  0  0  0  0
   14.9980    9.0950   16.3390   C 0  0  0  0  0  0  0  0  0  0  0  0
   15.3370    9.1920   17.6800   C 0  0  0  0  0  0  0  0  0  0  0  0
   14.4110    8.7260   18.6160   C 0  0  0  0  0  0  0  0  0  0  0  0
   16.5710    9.6630   17.9920   N 0  0  0  0  0  0  0  0  0  0  0  0
   17.0770    9.8360   19.2270   C 0  0  0  0  0  0  0  0  0  0  0  0
   18.5640   10.2230   19.2890   C 0  0  0  0  0  0  0  0  0  0  0  0
   19.2470   10.8230   18.2380   C 0  0  0  0  0  0  0  0  0  0  0  0
   20.5980   11.1530   18.3750   C 0  0  0  0  0  0  0  0  0  0  0  0
   21.2810   10.8870   19.5570   C 0  0  0  0  0  0  0  0  0  0  0  0
   20.5900   10.2840   20.5790   C 0  0  0  0  0  0  0  0  0  0  0  0
   19.2470    9.9610   20.4560   C 0  0  0  0  0  0  0  0  0  0  0  0
   22.7850   11.2550   19.7710   C 0  0  0  0  0  0  0  0  0  0  0  0
   23.0820   12.6190   19.2840   N 0  0  0  0  0  0  0  0  0  0  0  0
   22.2630   13.5090   20.0220   C 0  0  0  0  0  0  0  0  0  0  0  0
   22.5130   14.8940   19.4090   C 0  0  0  0  0  0  0  0  0  0  0  0
   23.9200   15.3340   19.5840   N 0  0  0  0  0  0  0  0  0  0  0  0
   24.2840   16.4960   18.7780   C 0  0  0  0  0  0  0  0  0  0  0  0
   24.7180   14.3030   18.8430   C 0  0  0  0  0  0  0  0  0  0  0  0
   24.4870   12.8940   19.4590   C 0  0  0  0  0  0  0  0  0  0  0  0
   16.4480    9.7480   20.2870   O 0  0  0  0  0  0  0  0  0  0  0  0
   11.5170    7.5620   16.4330   C 0  0  0  0  0  0  0  0  0  0  0  0
  1  2  2  0  0  0  0
  1  6  1  0  0  0  0
  2  3  1  0  0  0  0
  3  4  2  0  0  0  0
  3  7  1  0  0  0  0
  4  5  1  0  0  0  0
  5  6  2  0  0  0  0
  7  8  2  0  0  0  0
  7 12  1  0  0  0  0
  8  9  1  0  0  0  0
  9 10  2  0  0  0  0
 10 11  1  0  0  0  0
 11 12  2  0  0  0  0
 11 13  1  0  0  0  0
 13 14  1  0  0  0  0
 14 15  2  0  0  0  0
 14 19  1  0  0  0  0
 15 16  1  0  0  0  0
 15 37  1  0  0  0  0
 16 17  2  0  0  0  0
 17 18  1  0  0  0  0
 18 19  2  0  0  0  0
 18 20  1  0  0  0  0
 20 21  1  0  0  0  0
 21 22  1  0  0  0  0
 21 36  2  0  0  0  0
 22 23  2  0  0  0  0
 22 27  1  0  0  0  0
 23 24  1  0  0  0  0
 24 25  2  0  0  0  0
 25 26  1  0  0  0  0
 25 28  1  0  0  0  0
 26 27  2  0  0  0  0
 28 29  1  0  0  0  0
 29 30  1  0  0  0  0
 29 35  1  0  0  0  0
 30 31  1  0  0  0  0
 31 32  1  0  0  0  0
 32 33  1  0  0  0  0
 32 34  1  0  0  0  0
 34 35  1  0  0  0  0
M  END
>  <InstanceId>
3GVU_STI_A_1001

>  <ChemCompId>
STI

>  <PdbId>
3GVU

>  <ChainId>
A

>  <ResidueNumber>
1001

>  <InsertionCode>


>  <Model>
1

>  <AltIds>


>  <MissingHeavyAtoms>
0

>  <ObservedFormula>
C29 N7 O

>  <Name>
4-(4-METHYL-PIPERAZIN-1-YLMETHYL)-N-[4-METHYL-3-(4-PYRIDIN-3-YL-PYRIMIDIN-2-YLAMINO)-PHENYL]-BENZAMIDE

>  <SystematicName>
4-[(4-methylpiperazin-1-yl)methyl]-N-[4-methyl-3-[(4-pyridin-3-ylpyrimidin-2-yl)amino]phenyl]benzamide

>  <Synonyms>
STI-571; IMATINIB

>  <Type>
NON-POLYMER

>  <Formula>
C29 H31 N7 O

>  <MolecularWeight>
493.603

>  <ModifiedDate>
2020-06-17

>  <Parent>


>  <OneLetterCode>


>  <SubcomponentList>


>  <AmbiguousFlag>
N

>  <InChI>
InChI=1S/C29H31N7O/c1-21-5-10-25(18-27(21)34-29-31-13-11-26(33-29)24-4-3-12-30-19-24)32-28(37)23-8-6-22(7-9-23)20-36-16-14-35(2)15-17-36/h3-13,18-19H,14-17,20H2,1-2H3,(H,32,37)(H,31,33,34)

>  <InChIKey>
KTUFNOKKBVMGRW-UHFFFAOYSA-N

>  <SMILES>
Cc1ccc(cc1Nc2nccc(n2)c3cccnc3)NC(=O)c4ccc(cc4)CN5CCN(CC5)C

$$$$
