3QBC_B55_A_159
  RCSB PDB08012020143D
Coordinates from PDB:3QBC:A:159 Model:1 without hydrogens
 12 13  0  0  0  0            999 V2000
    0.7840   -1.6030   11.1050   O 0  0  0  0  0  0  0  0  0  0  0  0
    1.4320   -2.1050   12.0240   C 0  0  0  0  0  0  0  0  0  0  0  0
    1.5760   -1.5410   13.3630   C 0  0  0  0  0  0  0  0  0  0  0  0
    1.0910   -0.3620   13.9010   N 0  0  0  0  0  0  0  0  0  0  0  0
    2.0960   -3.3220   11.9820   N 0  0  0  0  0  0  0  0  0  0  0  0
    2.8220   -3.9250   13.0040   C 0  0  0  0  0  0  0  0  0  0  0  0
    3.4010   -5.1210   12.7400   N 0  0  0  0  0  0  0  0  0  0  0  0
    2.9280   -3.4320   14.2030   N 0  0  0  0  0  0  0  0  0  0  0  0
    2.2940   -2.2300   14.2640   C 0  0  0  0  0  0  0  0  0  0  0  0
    2.2610   -1.4570   15.4320   N 0  0  0  0  0  0  0  0  0  0  0  0
    1.5130   -0.3840   15.1440   C 0  0  0  0  0  0  0  0  0  0  0  0
    1.1930    0.8130   16.3880   S 0  0  0  0  0  0  0  0  0  0  0  0
  1  2  2  0  0  0  0
  2  3  1  0  0  0  0
  2  5  1  0  0  0  0
  3  4  1  0  0  0  0
  3  9  2  0  0  0  0
  4 11  2  0  0  0  0
  5  6  1  0  0  0  0
  6  7  1  0  0  0  0
  6  8  2  0  0  0  0
  8  9  1  0  0  0  0
  9 10  1  0  0  0  0
 10 11  1  0  0  0  0
 11 12  1  0  0  0  0
M  END
>  <InstanceId>
3QBC_B55_A_159

>  <ChemCompId>
B55

>  <PdbId>
3QBC

>  <ChainId>
A

>  <ResidueNumber>
159

>  <InsertionCode>


>  <Model>
1

>  <AltIds>


>  <MissingHeavyAtoms>
0

>  <ObservedFormula>
C5 N5 O S

>  <Name>
2-amino-8-sulfanyl-1,9-dihydro-6H-purin-6-one

>  <SystematicName>
2-amino-8-sulfanyl-1,9-dihydropurin-6-one

>  <Synonyms>
2-amino-8-mercapto-1H-purin-6(9H)-one

>  <Type>
NON-POLYMER

>  <Formula>
C5 H5 N5 O S

>  <MolecularWeight>
183.191

>  <ModifiedDate>
2020-06-17

>  <Parent>


>  <OneLetterCode>


>  <SubcomponentList>


>  <AmbiguousFlag>
N

>  <InChI>
InChI=1S/C5H5N5OS/c6-4-8-2-1(3(11)10-4)7-5(12)9-2/h(H5,6,7,8,9,10,11,12)

>  <InChIKey>
JHEKNTQSGTVPAO-UHFFFAOYSA-N

>  <SMILES>
c12c([nH]c(n1)S)N=C(NC2=O)N

$$$$
