5V0N_8W4_A_404
  RCSB PDB08022003173D
Coordinates from PDB:5V0N:A:404 Model:1 without hydrogens
 47 52  0  0  0  0            999 V2000
   -3.6360  -15.3930   30.9500   C 0  0  0  0  0  0  0  0  0  0  0  0
   -2.2960  -13.3870   30.9280   C 0  0  0  0  0  0  0  0  0  0  0  0
   -2.7820  -21.9960   36.9530   C 0  0  0  0  0  0  0  0  0  0  0  0
   -2.6650  -22.4100   35.5100   C 0  0  0  0  0  0  0  0  0  0  0  0
   -2.5970  -20.1980   34.6960   C 0  0  0  0  0  0  0  0  0  0  0  0
    0.1650  -14.8360   28.1770   C 0  0  0  0  0  0  0  0  0  0  0  0
   -0.9830  -15.5660   27.5030   C 0  0  0  0  0  0  0  0  0  0  0  0
   -0.5680  -17.9200   32.7790   C 0  0  0  0  0  0  0  0  0  0  0  0
    0.3190  -17.7340   31.7600   C 0  0  0  0  0  0  0  0  0  0  0  0
    1.0760  -16.5220   29.7900   C 0  0  0  0  0  0  0  0  0  0  0  0
    2.3480  -17.1580   29.8940   C 0  0  0  0  0  0  0  0  0  0  0  0
   -3.3980  -15.6360   32.3210   C 0  0  0  0  0  0  0  0  0  0  0  0
   -3.9810  -16.8340   33.0020   C 0  0  0  0  0  0  0  0  0  0  0  0
   -2.8900  -17.8340   33.5440   C 0  0  0  0  0  0  0  0  0  0  0  0
   -2.0370  -13.5950   32.3020   C 0  0  0  0  0  0  0  0  0  0  0  0
   -3.4760  -19.2350   33.9220   C 0  0  0  0  0  0  0  0  0  0  0  0
    3.3350  -19.8450   28.6700   O 0  0  0  0  0  0  0  0  0  0  0  0
    4.4350  -19.4650   29.5380   S 0  0  0  0  0  0  0  0  0  0  0  0
    5.2780  -18.1730   28.6580   C 0  0  0  0  0  0  0  0  0  0  0  0
    5.6680  -18.5700   27.2440   C 0  0  0  0  0  0  0  0  0  0  0  0
    6.6130  -17.8570   29.2990   C 0  0  0  0  0  0  0  0  0  0  0  0
    4.5210  -16.9200   28.4850   C 0  0  0  0  0  0  0  0  0  0  0  0
    3.1530  -16.6890   28.8000   N 0  0  0  0  0  0  0  0  0  0  0  0
    2.3980  -15.7630   28.0840   C 0  0  0  0  0  0  0  0  0  0  0  0
    1.1470  -15.6300   28.6320   C 0  0  0  0  0  0  0  0  0  0  0  0
    0.0960  -16.7940   30.7590   C 0  0  0  0  0  0  0  0  0  0  0  0
   -1.8670  -17.8750   32.5510   N 0  0  0  0  0  0  0  0  0  0  0  0
   -3.1060  -14.2990   30.2790   C 0  0  0  0  0  0  0  0  0  0  0  0
   -2.6090  -14.7140   32.9710   C 0  0  0  0  0  0  0  0  0  0  0  0
   -4.6120  -19.0370   34.7140   O 0  0  0  0  0  0  0  0  0  0  0  0
   -3.3350  -21.4240   34.6820   N 0  0  0  0  0  0  0  0  0  0  0  0
   -2.4520  -20.5570   37.1260   N 0  0  0  0  0  0  0  0  0  0  0  0
   -2.2210  -20.0990   38.5500   C 0  0  0  0  0  0  0  0  0  0  0  0
   -3.5360  -20.0710   39.2550   C 0  0  0  0  0  0  0  0  0  0  0  0
   -4.4690  -19.0770   38.9600   C 0  0  0  0  0  0  0  0  0  0  0  0
   -5.6880  -19.0600   39.5930   C 0  0  0  0  0  0  0  0  0  0  0  0
   -6.0600  -20.0360   40.4630   C 0  0  0  0  0  0  0  0  0  0  0  0
   -5.1530  -21.0440   40.7320   C 0  0  0  0  0  0  0  0  0  0  0  0
   -3.9070  -21.0480   40.1370   C 0  0  0  0  0  0  0  0  0  0  0  0
   -2.3230  -19.6550   36.0960   C 0  0  0  0  0  0  0  0  0  0  0  0
   -2.0290  -18.4830   36.3060   O 0  0  0  0  0  0  0  0  0  0  0  0
   -0.1030  -17.8840   33.9440   O 0  0  0  0  0  0  0  0  0  0  0  0
    1.5880  -18.3290   31.8710   C 0  0  0  0  0  0  0  0  0  0  0  0
    2.6010  -18.0530   30.9630   C 0  0  0  0  0  0  0  0  0  0  0  0
    3.7830  -18.7360   30.9520   N 0  0  0  0  0  0  0  0  0  0  0  0
    4.5730  -19.0070   32.1760   C 0  0  0  0  0  0  0  0  0  0  0  0
    5.3140  -20.4720   29.8010   O 0  0  0  0  0  0  0  0  0  0  0  0
  7  6  1  0  0  0  0
 28  2  2  0  0  0  0
 28  1  1  0  0  0  0
  2 15  1  0  0  0  0
  1 12  2  0  0  0  0
  6 25  1  0  0  0  0
 15 29  2  0  0  0  0
 12 29  1  0  0  0  0
 12 13  1  0  0  0  0
 25 24  2  0  0  0  0
 25 10  1  0  0  0  0
 13 14  1  0  0  0  0
 24 23  1  0  0  0  0
 10 26  2  0  0  0  0
 10 11  1  0  0  0  0
 26  9  1  0  0  0  0
 14 27  1  0  0  0  0
 14 16  1  0  0  0  0
 23 11  1  0  0  0  0
 23 22  1  0  0  0  0
 27  8  1  0  0  0  0
 30 16  1  0  0  0  0
 11 44  2  0  0  0  0
 16  5  1  0  0  0  0
 22 19  1  0  0  0  0
  9  8  1  0  0  0  0
  9 43  2  0  0  0  0
  8 42  2  0  0  0  0
 20 19  1  0  0  0  0
 17 18  2  0  0  0  0
 44 43  1  0  0  0  0
 44 45  1  0  0  0  0
 19 18  1  0  0  0  0
 19 21  1  0  0  0  0
  5 31  1  0  0  0  0
  5 40  1  0  0  0  0
 31  4  1  0  0  0  0
 18 45  1  0  0  0  0
 18 47  2  0  0  0  0
 41 40  2  0  0  0  0
 45 46  1  0  0  0  0
 40 32  1  0  0  0  0
 36 35  2  0  0  0  0
 36 37  1  0  0  0  0
 35 34  1  0  0  0  0
  4  3  1  0  0  0  0
 37 38  2  0  0  0  0
 32  3  1  0  0  0  0
 32 33  1  0  0  0  0
 34 33  1  0  0  0  0
 34 39  2  0  0  0  0
 38 39  1  0  0  0  0
M  END
>  <InstanceId>
5V0N_8W4_A_404

>  <ChemCompId>
8W4

>  <PdbId>
5V0N

>  <ChainId>
A

>  <ResidueNumber>
404

>  <InsertionCode>


>  <Model>
1

>  <AltIds>


>  <MissingHeavyAtoms>
0

>  <ObservedFormula>
C36 N5 O5 S

>  <Name>
N-{(1S,2S)-1-[(2S)-4-benzyl-3-oxopiperazin-2-yl]-1-hydroxy-3-phenylpropan-2-yl}-7-ethyl-1,3,3-trimethyl-2,2-dioxo-1,2,3,4-tetrahydro-2lambda~6~-[1,2,5]thiadiazepino[3,4,5-hi]indole-9-carboxamide

>  <SystematicName>
3-ethyl-9,11,11-trimethyl-10,10-bis(oxidanylidene)-~{N}-[(1~{S},2~{S})-1-oxidanyl-1-[(2~{S})-3-oxidanylidene-4-(phenylmethyl)piperazin-2-yl]-3-phenyl-propan-2-yl]-10$l^{6}-thia-1,9-diazatricyclo[6.4.1.0^{4,13}]trideca-2,4,6,8(13)-tetraene-6-carboxamide

>  <Synonyms>


>  <Type>
NON-POLYMER

>  <Formula>
C36 H43 N5 O5 S

>  <MolecularWeight>
657.822

>  <ModifiedDate>
2017-04-28

>  <Parent>


>  <OneLetterCode>


>  <SubcomponentList>


>  <AmbiguousFlag>
N

>  <InChI>
InChI=1S/C36H43N5O5S/c1-5-26-22-41-23-36(2,3)47(45,46)39(4)30-20-27(19-28(26)32(30)41)34(43)38-29(18-24-12-8-6-9-13-24)33(42)31-35(44)40(17-16-37-31)21-25-14-10-7-11-15-25/h6-15,19-20,22,29,31,33,37,42H,5,16-18,21,23H2,1-4H3,(H,38,43)/t29-,31-,33-/m0/s1

>  <InChIKey>
WBWSVNAKBNLSOJ-WXWREJFYSA-N

>  <SMILES>
CCc1cn2c3c1cc(cc3N(S(=O)(=O)C(C2)(C)C)C)C(=O)N[C@@H](Cc4ccccc4)[C@@H]([C@H]5C(=O)N(CCN5)Cc6ccccc6)O

$$$$
