4Q4Q_SAQ_A_406
  RCSB PDB08012022573D
Coordinates from PDB:4Q4Q:A:406 Model:1 without hydrogens
 21 24  0  0  0  0            999 V2000
  -17.3590   17.9880  -23.8880   N 0  0  0  0  0  0  0  0  0  0  0  0
  -15.8210   17.5840  -22.1360   N 0  0  0  0  0  0  0  0  0  0  0  0
  -16.8350   17.8710  -21.2240   C 0  0  0  0  0  0  0  0  0  0  0  0
  -18.1340   18.2150  -21.6380   C 0  0  0  0  0  0  0  0  0  0  0  0
  -18.4210   18.2900  -23.0750   C 0  0  0  0  0  0  0  0  0  0  0  0
  -19.1080   18.5050  -20.6880   C 0  0  0  0  0  0  0  0  0  0  0  0
  -18.7900   18.4910  -19.3440   C 0  0  0  0  0  0  0  0  0  0  0  0
  -16.5220   17.8430  -19.8580   C 0  0  0  0  0  0  0  0  0  0  0  0
  -19.4920   18.8140  -18.1990   N 0  0  0  0  0  0  0  0  0  0  0  0
  -18.6240   18.7050  -17.1680   C 0  0  0  0  0  0  0  0  0  0  0  0
  -16.1160   17.6480  -23.4320   C 0  0  0  0  0  0  0  0  0  0  0  0
  -17.5010   18.1720  -18.9160   C 0  0  0  0  0  0  0  0  0  0  0  0
  -17.4170   18.3140  -17.5290   N 0  0  0  0  0  0  0  0  0  0  0  0
  -19.0190   18.9910  -15.9230   N 0  0  0  0  0  0  0  0  0  0  0  0
  -19.5060   18.6270  -23.5410   O 0  0  0  0  0  0  0  0  0  0  0  0
  -18.1080   18.9300  -14.8030   C 0  0  0  0  0  0  0  0  0  0  0  0
  -17.3830   20.2290  -14.6990   C 0  0  0  0  0  0  0  0  0  0  0  0
  -18.2280   21.7100  -14.5990   S 0  0  0  0  0  0  0  0  0  0  0  0
  -16.7810   22.6060  -14.5510   C 0  0  0  0  0  0  0  0  0  0  0  0
  -15.6900   21.8190  -14.6070   C 0  0  0  0  0  0  0  0  0  0  0  0
  -16.0230   20.4360  -14.6930   C 0  0  0  0  0  0  0  0  0  0  0  0
  1  5  1  0  0  0  0
  1 11  1  0  0  0  0
  2  3  1  0  0  0  0
  2 11  2  0  0  0  0
  3  4  2  0  0  0  0
  3  8  1  0  0  0  0
  4  5  1  0  0  0  0
  4  6  1  0  0  0  0
  5 15  2  0  0  0  0
  6  7  2  0  0  0  0
  7  9  1  0  0  0  0
  7 12  1  0  0  0  0
  8 12  2  0  0  0  0
  9 10  1  0  0  0  0
 10 13  2  0  0  0  0
 10 14  1  0  0  0  0
 12 13  1  0  0  0  0
 14 16  1  0  0  0  0
 16 17  1  0  0  0  0
 21 17  2  0  0  0  0
 18 17  1  0  0  0  0
 18 19  1  0  0  0  0
 19 20  2  0  0  0  0
 20 21  1  0  0  0  0
M  END
>  <InstanceId>
4Q4Q_SAQ_A_406

>  <ChemCompId>
SAQ

>  <PdbId>
4Q4Q

>  <ChainId>
A

>  <ResidueNumber>
406

>  <InsertionCode>


>  <Model>
1

>  <AltIds>


>  <MissingHeavyAtoms>
0

>  <ObservedFormula>
C14 N5 O S

>  <Name>
2-[(thiophen-2-ylmethyl)amino]-1,7-dihydro-8H-imidazo[4,5-g]quinazolin-8-one

>  <SystematicName>
2-(thiophen-2-ylmethylamino)-1,7-dihydropyrimido[6,5-f]benzimidazol-8-one

>  <Synonyms>
2-[(2-Thienylmethyl)amino]-1,7-dihydro-8H-imidazo[4,5-g]quinazolin-8-one

>  <Type>
NON-POLYMER

>  <Formula>
C14 H11 N5 O S

>  <MolecularWeight>
297.335

>  <ModifiedDate>
2011-06-04

>  <Parent>


>  <OneLetterCode>


>  <SubcomponentList>


>  <AmbiguousFlag>
N

>  <InChI>
InChI=1S/C14H11N5OS/c20-13-9-4-11-12(5-10(9)16-7-17-13)19-14(18-11)15-6-8-2-1-3-21-8/h1-5,7H,6H2,(H2,15,18,19)(H,16,17,20)

>  <InChIKey>
FVWYYSMTACIDCC-UHFFFAOYSA-N

>  <SMILES>
c1cc(sc1)CNc2[nH]c3cc4c(cc3n2)N=CNC4=O

$$$$
