5OQ8_A0Q_A_301
  RCSB PDB08022002433D
Coordinates from PDB:5OQ8:A:301 Model:1 without hydrogens
 30 33  0  0  0  0            999 V2000
    1.2770   -4.5730   19.3420   C 0  0  0  0  0  0  0  0  0  0  0  0
    2.2450   -4.9610   18.4740   C 0  0  0  0  0  0  0  0  0  0  0  0
    1.9490   -5.7690   17.4010   C 0  0  0  0  0  0  0  0  0  0  0  0
    0.6760   -6.2870   17.2190   C 0  0  0  0  0  0  0  0  0  0  0  0
   -0.3010   -5.9230   18.1120   C 0  0  0  0  0  0  0  0  0  0  0  0
    0.0180   -5.0620   19.1800   C 0  0  0  0  0  0  0  0  0  0  0  0
    2.9880   -6.0730   16.5880   O 0  0  0  0  0  0  0  0  0  0  0  0
    2.6800   -6.9370   15.4720   C 0  0  0  0  0  0  0  0  0  0  0  0
    4.0310   -7.2090   14.7480   C 0  0  0  0  0  0  0  0  0  0  0  0
   -0.9270   -4.7120   20.1330   N 0  0  0  0  0  0  0  0  0  0  0  0
    3.6230   -4.4510   18.6540   C 0  0  0  0  0  0  0  0  0  0  0  0
    4.6140   -4.9930   17.9320   N 0  0  0  0  0  0  0  0  0  0  0  0
    3.8300   -3.5600   19.4690   O 0  0  0  0  0  0  0  0  0  0  0  0
    5.8850   -4.4760   17.7490   C 0  0  0  0  0  0  0  0  0  0  0  0
    6.3510   -3.3980   18.4180   C 0  0  0  0  0  0  0  0  0  0  0  0
    7.6200   -2.9570   18.1750   C 0  0  0  0  0  0  0  0  0  0  0  0
    8.3740   -3.5980   17.2130   C 0  0  0  0  0  0  0  0  0  0  0  0
    7.8910   -4.6330   16.5630   N 0  0  0  0  0  0  0  0  0  0  0  0
    6.6790   -5.1030   16.8120   C 0  0  0  0  0  0  0  0  0  0  0  0
    4.4680   -6.3640   13.7220   C 0  0  0  0  0  0  0  0  0  0  0  0
    5.6950   -6.5680   13.1220   C 0  0  0  0  0  0  0  0  0  0  0  0
    6.5020   -7.6400   13.4980   C 0  0  0  0  0  0  0  0  0  0  0  0
    6.0590   -8.4770   14.5050   C 0  0  0  0  0  0  0  0  0  0  0  0
    4.8390   -8.2690   15.1410   C 0  0  0  0  0  0  0  0  0  0  0  0
   -0.3700   -4.3150   21.4480   C 0  0  0  0  0  0  0  0  0  0  0  0
   -1.4010   -3.6730   22.3300   C 0  0  0  0  0  0  0  0  0  0  0  0
   -2.6480   -4.4540   22.2340   N 0  0  0  0  0  0  0  0  0  0  0  0
   -3.2230   -4.4720   20.8660   C 0  0  0  0  0  0  0  0  0  0  0  0
   -2.2960   -5.2550   19.9770   C 0  0  0  0  0  0  0  0  0  0  0  0
   -3.6560   -3.8320   23.1010   C 0  0  0  0  0  0  0  0  0  0  0  0
 21 22  2  0  0  0  0
 21 20  1  0  0  0  0
 22 23  1  0  0  0  0
 20  9  2  0  0  0  0
 23 24  2  0  0  0  0
  9 24  1  0  0  0  0
  9  8  1  0  0  0  0
  8  7  1  0  0  0  0
  7  3  1  0  0  0  0
 18 19  2  0  0  0  0
 18 17  1  0  0  0  0
 19 14  1  0  0  0  0
 17 16  2  0  0  0  0
  4  3  2  0  0  0  0
  4  5  1  0  0  0  0
  3  2  1  0  0  0  0
 14 12  1  0  0  0  0
 14 15  2  0  0  0  0
 12 11  1  0  0  0  0
 16 15  1  0  0  0  0
  5  6  2  0  0  0  0
  2 11  1  0  0  0  0
  2  1  2  0  0  0  0
 11 13  2  0  0  0  0
  6  1  1  0  0  0  0
  6 10  1  0  0  0  0
 10 29  1  0  0  0  0
 10 25  1  0  0  0  0
 29 28  1  0  0  0  0
 28 27  1  0  0  0  0
 25 26  1  0  0  0  0
 26 27  1  0  0  0  0
 27 30  1  0  0  0  0
M  END
>  <InstanceId>
5OQ8_A0Q_A_301

>  <ChemCompId>
A0Q

>  <PdbId>
5OQ8

>  <ChainId>
A

>  <ResidueNumber>
301

>  <InsertionCode>


>  <Model>
1

>  <AltIds>


>  <MissingHeavyAtoms>
0

>  <ObservedFormula>
C24 N4 O2

>  <Name>
5-(4-methylpiperazin-1-yl)-2-phenylmethoxy-~{N}-pyridin-3-yl-benzamide

>  <SystematicName>
5-(4-methylpiperazin-1-yl)-2-phenylmethoxy-~{N}-pyridin-3-yl-benzamide

>  <Synonyms>


>  <Type>
NON-POLYMER

>  <Formula>
C24 H26 N4 O2

>  <MolecularWeight>
402.489

>  <ModifiedDate>
2017-10-20

>  <Parent>


>  <OneLetterCode>


>  <SubcomponentList>


>  <AmbiguousFlag>
N

>  <InChI>
InChI=1S/C24H26N4O2/c1-27-12-14-28(15-13-27)21-9-10-23(30-18-19-6-3-2-4-7-19)22(16-21)24(29)26-20-8-5-11-25-17-20/h2-11,16-17H,12-15,18H2,1H3,(H,26,29)

>  <InChIKey>
QGEBKIOJSNPDFE-UHFFFAOYSA-N

>  <SMILES>
CN1CCN(CC1)c2ccc(c(c2)C(=O)Nc3cccnc3)OCc4ccccc4

$$$$
