3CFN_2AN_A_1
  RCSB PDB08012018443D
Coordinates from PDB:3CFN:A:1 Model:1 without hydrogens
 21 23  0  0  0  0            999 V2000
  -24.2300   -0.6460   -4.1920   C 0  0  0  0  0  0  0  0  0  0  0  0
  -24.2910   -1.8480   -4.9040   C 0  0  0  0  0  0  0  0  0  0  0  0
  -25.3210   -2.7580   -4.7090   C 0  0  0  0  0  0  0  0  0  0  0  0
  -26.3120   -2.4640   -3.7810   C 0  0  0  0  0  0  0  0  0  0  0  0
  -26.2710   -1.2750   -3.0600   C 0  0  0  0  0  0  0  0  0  0  0  0
  -27.2990   -1.0470   -2.1480   C 0  0  0  0  0  0  0  0  0  0  0  0
  -27.3170    0.1200   -1.3970   C 0  0  0  0  0  0  0  0  0  0  0  0
  -26.3000    1.0510   -1.5650   C 0  0  0  0  0  0  0  0  0  0  0  0
  -23.1900    0.1950   -4.4310   N 0  0  0  0  0  0  0  0  0  0  0  0
  -24.1580    2.0180   -2.5410   S 0  0  0  0  0  0  0  0  0  0  0  0
  -25.2570    0.8450   -2.4730   C 0  0  0  0  0  0  0  0  0  0  0  0
  -25.2310   -0.3410   -3.2450   C 0  0  0  0  0  0  0  0  0  0  0  0
  -22.5030    0.2340   -5.6030   C 0  0  0  0  0  0  0  0  0  0  0  0
  -21.4820   -0.6870   -5.8620   C 0  0  0  0  0  0  0  0  0  0  0  0
  -20.7760   -0.6430   -7.0640   C 0  0  0  0  0  0  0  0  0  0  0  0
  -21.0830    0.3350   -8.0110   C 0  0  0  0  0  0  0  0  0  0  0  0
  -22.0980    1.2590   -7.7550   C 0  0  0  0  0  0  0  0  0  0  0  0
  -22.8050    1.2110   -6.5530   C 0  0  0  0  0  0  0  0  0  0  0  0
  -24.3570    2.9120   -1.3860   O 0  0  0  0  0  0  0  0  0  0  0  0
  -24.3060    2.7870   -3.7970   O 0  0  0  0  0  0  0  0  0  0  0  0
  -22.7940    1.4610   -2.4570   O 0  0  0  0  0  0  0  0  0  0  0  0
  1  2  2  0  0  0  0
  1  9  1  0  0  0  0
  1 12  1  0  0  0  0
  2  3  1  0  0  0  0
  3  4  2  0  0  0  0
  4  5  1  0  0  0  0
  5  6  2  0  0  0  0
  5 12  1  0  0  0  0
  6  7  1  0  0  0  0
  7  8  2  0  0  0  0
  8 11  1  0  0  0  0
  9 13  1  0  0  0  0
 10 11  1  0  0  0  0
 10 19  2  0  0  0  0
 10 20  2  0  0  0  0
 10 21  1  0  0  0  0
 11 12  2  0  0  0  0
 13 14  2  0  0  0  0
 13 18  1  0  0  0  0
 14 15  1  0  0  0  0
 15 16  2  0  0  0  0
 16 17  1  0  0  0  0
 17 18  2  0  0  0  0
M  END
>  <InstanceId>
3CFN_2AN_A_1

>  <ChemCompId>
2AN

>  <PdbId>
3CFN

>  <ChainId>
A

>  <ResidueNumber>
1

>  <InsertionCode>


>  <Model>
1

>  <AltIds>


>  <MissingHeavyAtoms>
0

>  <ObservedFormula>
C16 N O3 S

>  <Name>
8-ANILINO-1-NAPHTHALENE SULFONATE

>  <SystematicName>
8-phenylazanylnaphthalene-1-sulfonic acid

>  <Synonyms>


>  <Type>
NON-POLYMER

>  <Formula>
C16 H13 N O3 S

>  <MolecularWeight>
299.344

>  <ModifiedDate>
2011-06-04

>  <Parent>


>  <OneLetterCode>


>  <SubcomponentList>


>  <AmbiguousFlag>
N

>  <InChI>
InChI=1S/C16H13NO3S/c18-21(19,20)15-11-5-7-12-6-4-10-14(16(12)15)17-13-8-2-1-3-9-13/h1-11,17H,(H,18,19,20)

>  <InChIKey>
FWEOQOXTVHGIFQ-UHFFFAOYSA-N

>  <SMILES>
c1ccc(cc1)Nc2cccc3c2c(ccc3)S(=O)(=O)O

$$$$
