4QRH_0O2_B_303
  RCSB PDB08012023033D
Coordinates from PDB:4QRH:B:303 Model:1 without hydrogens
 40 42  0  0  0  0            999 V2000
   95.5810  -22.8190  105.1930   P 0  0  0  0  0  0  0  0  0  0  0  0
   94.1430  -22.7800  104.7690   O 0  0  0  0  0  0  0  0  0  0  0  0
   95.8020  -23.6700  106.4360   O 0  0  0  0  0  0  0  0  0  0  0  0
   96.1390  -21.4290  105.3920   O 0  0  0  0  0  0  0  0  0  0  0  0
   94.5540  -28.8150  107.1540   P 0  0  0  0  0  0  0  0  0  0  0  0
   94.6720  -30.3050  106.9530   O 0  0  0  0  0  0  0  0  0  0  0  0
   94.3470  -28.5380  108.6290   O 0  0  0  0  0  0  0  0  0  0  0  0
   95.8220  -28.1440  106.6840   O 0  0  0  0  0  0  0  0  0  0  0  0
   93.2980  -27.7280  104.8660   P 0  0  0  0  0  0  0  0  0  0  0  0
   94.3050  -26.6020  104.8160   O 0  0  0  0  0  0  0  0  0  0  0  0
   91.9090  -27.2710  104.4850   O 0  0  0  0  0  0  0  0  0  0  0  0
   93.2710  -28.2820  106.3560   O 0  0  0  0  0  0  0  0  0  0  0  0
   93.7560  -28.9290  103.9310   O 0  0  0  0  0  0  0  0  0  0  0  0
   93.9370  -29.0610  102.3510   P 0  0  0  0  0  0  0  0  0  0  0  0
   92.6690  -28.8280  101.5830   O 0  0  0  0  0  0  0  0  0  0  0  0
   94.4080  -30.4820  102.2500   O 0  0  0  0  0  0  0  0  0  0  0  0
   95.0530  -28.1130  101.7330   O 0  0  0  0  0  0  0  0  0  0  0  0
   96.3220  -28.1470  102.3500   C 0  0  0  0  0  0  0  0  0  0  0  0
   97.2160  -27.1040  101.8070   C 0  0  0  0  0  0  0  0  0  0  0  0
   97.4640  -27.4160  100.3660   O 0  0  0  0  0  0  0  0  0  0  0  0
   96.6720  -25.7280  101.8780   C 0  0  0  0  0  0  0  0  0  0  0  0
   97.7070  -24.9220  102.5000   O 0  0  0  0  0  0  0  0  0  0  0  0
   96.4260  -25.3050  100.4980   C 0  0  0  0  0  0  0  0  0  0  0  0
   96.6250  -23.8760  100.2630   O 0  0  0  0  0  0  0  0  0  0  0  0
   97.3980  -26.0810   99.7030   C 0  0  0  0  0  0  0  0  0  0  0  0
   97.0400  -26.2450   98.3570   N 0  0  0  0  0  0  0  0  0  0  0  0
   95.8310  -26.5010   97.8410   C 0  0  0  0  0  0  0  0  0  0  0  0
   95.9020  -26.5930   96.5140   N 0  0  0  0  0  0  0  0  0  0  0  0
   97.1660  -26.4010   96.1290   C 0  0  0  0  0  0  0  0  0  0  0  0
   97.8560  -26.3740   94.9090   C 0  0  0  0  0  0  0  0  0  0  0  0
   97.3170  -26.5260   93.8230   O 0  0  0  0  0  0  0  0  0  0  0  0
   99.1690  -26.1590   94.9180   N 0  0  0  0  0  0  0  0  0  0  0  0
   99.8520  -25.9620   96.0470   C 0  0  0  0  0  0  0  0  0  0  0  0
  101.2310  -25.7150   95.9840   N 0  0  0  0  0  0  0  0  0  0  0  0
   99.2330  -25.9700   97.2480   N 0  0  0  0  0  0  0  0  0  0  0  0
   97.9010  -26.1930   97.3070   C 0  0  0  0  0  0  0  0  0  0  0  0
   97.5660  -24.5680  104.0550   P 0  0  0  0  0  0  0  0  0  0  0  0
   98.8540  -23.9540  104.4640   O 0  0  0  0  0  0  0  0  0  0  0  0
   97.1680  -25.8020  104.8220   O 0  0  0  0  0  0  0  0  0  0  0  0
   96.3860  -23.5000  103.9980   O 0  0  0  0  0  0  0  0  0  0  0  0
  6  5  2  0  0  0  0
 16 14  2  0  0  0  0
  5 12  1  0  0  0  0
  5  7  1  0  0  0  0
  5  8  1  0  0  0  0
 12  9  1  0  0  0  0
 13 14  1  0  0  0  0
 13  9  1  0  0  0  0
 11  9  2  0  0  0  0
 15 14  1  0  0  0  0
 14 17  1  0  0  0  0
  9 10  1  0  0  0  0
 17 18  1  0  0  0  0
 18 19  1  0  0  0  0
 19 20  1  0  0  0  0
 19 21  1  0  0  0  0
 20 25  1  0  0  0  0
 39 37  2  0  0  0  0
 27 28  2  0  0  0  0
 27 26  1  0  0  0  0
 21 23  1  0  0  0  0
 21 22  1  0  0  0  0
 28 29  1  0  0  0  0
 25 26  1  0  0  0  0
 25 23  1  0  0  0  0
 26 36  1  0  0  0  0
 23 24  1  0  0  0  0
  3  1  2  0  0  0  0
 29 36  2  0  0  0  0
 29 30  1  0  0  0  0
 37 22  1  0  0  0  0
 37 40  1  0  0  0  0
 37 38  1  0  0  0  0
 36 35  1  0  0  0  0
 31 30  2  0  0  0  0
 30 32  1  0  0  0  0
  2  1  1  0  0  0  0
 40  1  1  0  0  0  0
 35 33  2  0  0  0  0
  1  4  1  0  0  0  0
 32 33  1  0  0  0  0
 33 34  1  0  0  0  0
M  END
>  <InstanceId>
4QRH_0O2_B_303

>  <ChemCompId>
0O2

>  <PdbId>
4QRH

>  <ChainId>
B

>  <ResidueNumber>
303

>  <InsertionCode>


>  <Model>
1

>  <AltIds>


>  <MissingHeavyAtoms>
0

>  <ObservedFormula>
C10 N5 O20 P5

>  <Name>
guanosine 5'-(tetrahydrogen triphosphate) 3'-(trihydrogen diphosphate)

>  <SystematicName>
[(2R,3S,4R,5R)-5-(2-azanyl-6-oxidanylidene-1H-purin-9-yl)-4-oxidanyl-2-[[oxidanyl-[oxidanyl(phosphonooxy)phosphoryl]oxy-phosphoryl]oxymethyl]oxolan-3-yl] phosphono hydrogen phosphate

>  <Synonyms>


>  <Type>
NON-POLYMER

>  <Formula>
C10 H18 N5 O20 P5

>  <MolecularWeight>
683.14

>  <ModifiedDate>
2014-11-05

>  <Parent>


>  <OneLetterCode>


>  <SubcomponentList>


>  <AmbiguousFlag>
N

>  <InChI>
InChI=1S/C10H18N5O20P5/c11-10-13-7-4(8(17)14-10)12-2-15(7)9-5(16)6(32-39(26,27)33-36(18,19)20)3(31-9)1-30-38(24,25)35-40(28,29)34-37(21,22)23/h2-3,5-6,9,16H,1H2,(H,24,25)(H,26,27)(H,28,29)(H2,18,19,20)(H2,21,22,23)(H3,11,13,14,17)/t3-,5-,6-,9-/m1/s1

>  <InChIKey>
KCPMACXZAITQAX-UUOKFMHZSA-N

>  <SMILES>
c1nc2c(n1[C@H]3[C@@H]([C@@H]([C@H](O3)COP(=O)(O)OP(=O)(O)OP(=O)(O)O)OP(=O)(O)OP(=O)(O)O)O)N=C(NC2=O)N

$$$$
