4R0A_URI_A_901
  RCSB PDB08012023063D
Coordinates from PDB:4R0A:A:901 Model:1 without hydrogens
 17 18  0  0  0  0            999 V2000
  -17.8700   58.9700  -34.4890   N 0  0  0  0  0  0  0  0  0  0  0  0
  -16.9670   57.9530  -34.7590   C 0  0  0  0  0  0  0  0  0  0  0  0
  -15.6510   58.3290  -34.7010   N 0  0  0  0  0  0  0  0  0  0  0  0
  -15.1470   59.5520  -34.3160   C 0  0  0  0  0  0  0  0  0  0  0  0
  -16.1370   60.5150  -33.9520   C 0  0  0  0  0  0  0  0  0  0  0  0
  -17.4350   60.2010  -34.0600   C 0  0  0  0  0  0  0  0  0  0  0  0
  -17.3030   56.8250  -35.0900   O 0  0  0  0  0  0  0  0  0  0  0  0
  -13.9260   59.7180  -34.2780   O 0  0  0  0  0  0  0  0  0  0  0  0
  -19.3120   58.6730  -34.4990   C 0  0  0  0  0  0  0  0  0  0  0  0
  -19.8160   58.0510  -35.8000   C 0  0  0  0  0  0  0  0  0  0  0  0
  -21.0110   57.2270  -35.3290   C 0  0  0  0  0  0  0  0  0  0  0  0
  -20.7000   56.9120  -33.8660   C 0  0  0  0  0  0  0  0  0  0  0  0
  -20.2040   59.0680  -36.6940   O 0  0  0  0  0  0  0  0  0  0  0  0
  -22.2310   57.9720  -35.4640   O 0  0  0  0  0  0  0  0  0  0  0  0
  -19.5890   57.7400  -33.4700   O 0  0  0  0  0  0  0  0  0  0  0  0
  -20.4120   55.4640  -33.5330   C 0  0  0  0  0  0  0  0  0  0  0  0
  -19.3250   54.9800  -34.3010   O 0  0  0  0  0  0  0  0  0  0  0  0
  1  2  1  0  0  0  0
  1  6  1  0  0  0  0
  1  9  1  0  0  0  0
  2  3  1  0  0  0  0
  2  7  2  0  0  0  0
  3  4  1  0  0  0  0
  4  5  1  0  0  0  0
  4  8  2  0  0  0  0
  5  6  2  0  0  0  0
  9 10  1  0  0  0  0
  9 15  1  0  0  0  0
 10 11  1  0  0  0  0
 10 13  1  0  0  0  0
 11 12  1  0  0  0  0
 11 14  1  0  0  0  0
 12 15  1  0  0  0  0
 12 16  1  0  0  0  0
 16 17  1  0  0  0  0
M  END
>  <InstanceId>
4R0A_URI_A_901

>  <ChemCompId>
URI

>  <PdbId>
4R0A

>  <ChainId>
A

>  <ResidueNumber>
901

>  <InsertionCode>


>  <Model>
1

>  <AltIds>


>  <MissingHeavyAtoms>
0

>  <ObservedFormula>
C9 N2 O6

>  <Name>
URIDINE

>  <SystematicName>
1-[(2R,3R,4S,5R)-3,4-dihydroxy-5-(hydroxymethyl)oxolan-2-yl]pyrimidine-2,4-dione

>  <Synonyms>


>  <Type>
NON-POLYMER

>  <Formula>
C9 H12 N2 O6

>  <MolecularWeight>
244.201

>  <ModifiedDate>
2011-06-04

>  <Parent>


>  <OneLetterCode>


>  <SubcomponentList>


>  <AmbiguousFlag>
N

>  <InChI>
InChI=1S/C9H12N2O6/c12-3-4-6(14)7(15)8(17-4)11-2-1-5(13)10-9(11)16/h1-2,4,6-8,12,14-15H,3H2,(H,10,13,16)/t4-,6-,7-,8-/m1/s1

>  <InChIKey>
DRTQHJPVMGBUCF-XVFCMESISA-N

>  <SMILES>
C1=CN(C(=O)NC1=O)[C@H]2[C@@H]([C@@H]([C@H](O2)CO)O)O

$$$$
