5NXW_RA9_A_302
  RCSB PDB08022002363D
Coordinates from PDB:5NXW:A:302 Model:1 without hydrogens
 21 22  0  0  0  0            999 V2000
   -7.5090    2.6370   16.7080   O 0  0  0  0  0  0  0  0  0  0  0  0
   -6.0690    2.5930   16.7970   S 0  0  0  0  0  0  0  0  0  0  0  0
   -5.4960    2.7070   18.1400   O 0  0  0  0  0  0  0  0  0  0  0  0
   -5.5090    1.2820   16.0570   N 0  0  0  0  0  0  0  0  0  0  0  0
   -5.5300    3.9390   15.9450   C 0  0  0  0  0  0  0  0  0  0  0  0
   -4.1870    4.1140   15.5780   C 0  0  0  0  0  0  0  0  0  0  0  0
   -6.4170    4.9610   15.5260   C 0  0  0  0  0  0  0  0  0  0  0  0
   -6.0090    6.0780   14.8070   C 0  0  0  0  0  0  0  0  0  0  0  0
   -4.6770    6.2340   14.4400   C 0  0  0  0  0  0  0  0  0  0  0  0
   -3.7650    5.2580   14.8500   C 0  0  0  0  0  0  0  0  0  0  0  0
   -4.2410    7.3500   13.7520   N 0  0  0  0  0  0  0  0  0  0  0  0
   -2.9410    7.7370   13.5220   C 0  0  0  0  0  0  0  0  0  0  0  0
   -1.8840    7.1860   13.8060   O 0  0  0  0  0  0  0  0  0  0  0  0
   -2.6740    9.0690   12.8720   C 0  0  0  0  0  0  0  0  0  0  0  0
   -1.4440    9.8840   13.8540   S 0  0  0  0  0  0  0  0  0  0  0  0
   -1.6530   11.5350   13.3680   C 0  0  0  0  0  0  0  0  0  0  0  0
   -2.3950   11.8690   12.2930   N 0  0  0  0  0  0  0  0  0  0  0  0
   -0.8830   12.7760   14.2940   S 0  0  0  0  0  0  0  0  0  0  0  0
   -1.6350   13.8210   13.1300   C 0  0  0  0  0  0  0  0  0  0  0  0
   -2.3860   13.2750   12.1460   N 0  0  0  0  0  0  0  0  0  0  0  0
   -1.4610   15.1610   13.2130   N 0  0  0  0  0  0  0  0  0  0  0  0
 20 17  1  0  0  0  0
 20 19  2  0  0  0  0
 17 16  2  0  0  0  0
 14 12  1  0  0  0  0
 14 15  1  0  0  0  0
 19 21  1  0  0  0  0
 19 18  1  0  0  0  0
 16 15  1  0  0  0  0
 16 18  1  0  0  0  0
 12 11  1  0  0  0  0
 12 13  2  0  0  0  0
 11  9  1  0  0  0  0
  9  8  2  0  0  0  0
  9 10  1  0  0  0  0
  8  7  1  0  0  0  0
 10  6  2  0  0  0  0
  7  5  2  0  0  0  0
  6  5  1  0  0  0  0
  5  2  1  0  0  0  0
  4  2  1  0  0  0  0
  1  2  2  0  0  0  0
  2  3  2  0  0  0  0
M  END
>  <InstanceId>
5NXW_RA9_A_302

>  <ChemCompId>
RA9

>  <PdbId>
5NXW

>  <ChainId>
A

>  <ResidueNumber>
302

>  <InsertionCode>


>  <Model>
1

>  <AltIds>


>  <MissingHeavyAtoms>
0

>  <ObservedFormula>
C10 N5 O3 S3

>  <Name>
2-[(5-azanyl-1,3,4-thiadiazol-2-yl)sulfanyl]-~{N}-(4-sulfamoylphenyl)ethanamide

>  <SystematicName>
2-[(5-azanyl-1,3,4-thiadiazol-2-yl)sulfanyl]-~{N}-(4-sulfamoylphenyl)ethanamide

>  <Synonyms>


>  <Type>
NON-POLYMER

>  <Formula>
C10 H11 N5 O3 S3

>  <MolecularWeight>
345.421

>  <ModifiedDate>
2018-01-12

>  <Parent>


>  <OneLetterCode>


>  <SubcomponentList>


>  <AmbiguousFlag>
N

>  <InChI>
InChI=1S/C10H11N5O3S3/c11-9-14-15-10(20-9)19-5-8(16)13-6-1-3-7(4-2-6)21(12,17)18/h1-4H,5H2,(H2,11,14)(H,13,16)(H2,12,17,18)

>  <InChIKey>
XOOCPGSAGIALAP-UHFFFAOYSA-N

>  <SMILES>
c1cc(ccc1NC(=O)CSc2nnc(s2)N)S(=O)(=O)N

$$$$
