5YA5_6TD_A_1401
  RCSB PDB08022003433D
Coordinates from PDB:5YA5:A:1401 Model:1 without hydrogens
 26 30  0  0  0  0            999 V2000
   16.5560  -15.0110  -17.2240   C 0  0  0  0  0  0  0  0  0  0  0  0
   17.2390  -13.9120  -17.7090   O 0  0  0  0  0  0  0  0  0  0  0  0
   16.6250  -13.1000  -18.6310   C 0  0  0  0  0  0  0  0  0  0  0  0
   17.3210  -12.0210  -19.1530   C 0  0  0  0  0  0  0  0  0  0  0  0
   16.7170  -11.1910  -20.0830   C 0  0  0  0  0  0  0  0  0  0  0  0
   15.3240  -13.3470  -19.0340   C 0  0  0  0  0  0  0  0  0  0  0  0
   14.7140  -12.5130  -19.9640   C 0  0  0  0  0  0  0  0  0  0  0  0
   15.4140  -11.4320  -20.4880   C 0  0  0  0  0  0  0  0  0  0  0  0
   14.7880  -10.5210  -21.4930   C 0  0  0  0  0  0  0  0  0  0  0  0
   14.3770   -9.2190  -20.8690   C 0  0  0  0  0  0  0  0  0  0  0  0
   14.9520   -8.0360  -21.0170   N 0  0  0  0  0  0  0  0  0  0  0  0
   14.2700   -7.1370  -20.3010   N 0  0  0  0  0  0  0  0  0  0  0  0
   13.2390   -7.7360  -19.6770   C 0  0  0  0  0  0  0  0  0  0  0  0
   11.8750   -7.5770  -18.6190   S 0  0  0  0  0  0  0  0  0  0  0  0
   13.2810   -9.0500  -20.0220   N 0  0  0  0  0  0  0  0  0  0  0  0
   12.3200   -9.8800  -19.4960   N 0  0  0  0  0  0  0  0  0  0  0  0
   11.4500   -9.2760  -18.6790   C 0  0  0  0  0  0  0  0  0  0  0  0
   10.2960   -9.9290  -18.0380   C 0  0  0  0  0  0  0  0  0  0  0  0
    9.9690  -11.2840  -18.1280   C 0  0  0  0  0  0  0  0  0  0  0  0
    8.7420  -11.4220  -17.4030   C 0  0  0  0  0  0  0  0  0  0  0  0
    7.9100  -12.5290  -17.1070   C 0  0  0  0  0  0  0  0  0  0  0  0
    6.7490  -12.3410  -16.3550   C 0  0  0  0  0  0  0  0  0  0  0  0
    6.3970  -11.0650  -15.8930   C 0  0  0  0  0  0  0  0  0  0  0  0
    7.2130   -9.9740  -16.1780   C 0  0  0  0  0  0  0  0  0  0  0  0
    8.3980  -10.1680  -16.9430   C 0  0  0  0  0  0  0  0  0  0  0  0
    9.3520   -9.2760  -17.3590   N 0  0  0  0  0  0  0  0  0  0  0  0
  9 10  1  0  0  0  0
  9  8  1  0  0  0  0
 11 10  2  0  0  0  0
 11 12  1  0  0  0  0
 10 15  1  0  0  0  0
  8  5  2  0  0  0  0
  8  7  1  0  0  0  0
 12 13  2  0  0  0  0
  5  4  1  0  0  0  0
 15 13  1  0  0  0  0
 15 16  1  0  0  0  0
  7  6  2  0  0  0  0
 13 14  1  0  0  0  0
 16 17  2  0  0  0  0
  4  3  2  0  0  0  0
  6  3  1  0  0  0  0
 17 14  1  0  0  0  0
 17 18  1  0  0  0  0
  3  2  1  0  0  0  0
 19 18  2  0  0  0  0
 19 20  1  0  0  0  0
 18 26  1  0  0  0  0
  2  1  1  0  0  0  0
 20 21  2  0  0  0  0
 20 25  1  0  0  0  0
 26 25  1  0  0  0  0
 21 22  1  0  0  0  0
 25 24  2  0  0  0  0
 22 23  2  0  0  0  0
 24 23  1  0  0  0  0
M  END
>  <InstanceId>
5YA5_6TD_A_1401

>  <ChemCompId>
6TD

>  <PdbId>
5YA5

>  <ChainId>
A

>  <ResidueNumber>
1401

>  <InsertionCode>


>  <Model>
1

>  <AltIds>


>  <MissingHeavyAtoms>
0

>  <ObservedFormula>
C19 N5 O S

>  <Name>
2-[3-(4-methoxybenzyl)[1,2,4]triazolo[3,4-b][1,3,4]thiadiazol-6-yl]-1H-indole

>  <SystematicName>
6-(1H-indol-2-yl)-3-[(4-methoxyphenyl)methyl]-[1,2,4]triazolo[3,4-b][1,3,4]thiadiazole

>  <Synonyms>
6-(1H-indol-2-yl)-3-(4-methoxybenzyl)-[1,2,4]triazolo[3,4-b][1,3,4]thiadiazole

>  <Type>
NON-POLYMER

>  <Formula>
C19 H15 N5 O S

>  <MolecularWeight>
361.42

>  <ModifiedDate>
2018-06-29

>  <Parent>


>  <OneLetterCode>


>  <SubcomponentList>


>  <AmbiguousFlag>
N

>  <InChI>
InChI=1S/C19H15N5OS/c1-25-14-8-6-12(7-9-14)10-17-21-22-19-24(17)23-18(26-19)16-11-13-4-2-3-5-15(13)20-16/h2-9,11,20H,10H2,1H3

>  <InChIKey>
ZXLRTUDCUYHDLP-UHFFFAOYSA-N

>  <SMILES>
COc1ccc(cc1)Cc2nnc3n2nc(s3)c4cc5ccccc5[nH]4

$$$$
