2C3L_IDZ_A_1274
  RCSB PDB08012016443D
Coordinates from PDB:2C3L:A:1274 Model:1 without hydrogens
 18 21  0  0  0  0            999 V2000
   12.9690   -1.0580   10.5270   C 0  0  0  0  0  0  0  0  0  0  0  0
   12.9210   -2.2890   11.1980   C 0  0  0  0  0  0  0  0  0  0  0  0
   14.0700   -3.0830   11.2980   C 0  0  0  0  0  0  0  0  0  0  0  0
   15.2760   -2.6510   10.7470   C 0  0  0  0  0  0  0  0  0  0  0  0
   15.3220   -1.4250   10.1210   C 0  0  0  0  0  0  0  0  0  0  0  0
   16.3020   -0.6970    9.4410   C 0  0  0  0  0  0  0  0  0  0  0  0
   17.6240   -1.0920    9.2810   C 0  0  0  0  0  0  0  0  0  0  0  0
   18.5490   -0.3310    8.6630   N 0  0  0  0  0  0  0  0  0  0  0  0
   19.6850   -0.9910    8.6940   C 0  0  0  0  0  0  0  0  0  0  0  0
   20.9490   -0.6950    8.1820   C 0  0  0  0  0  0  0  0  0  0  0  0
   21.9990   -1.6140    8.3680   C 0  0  0  0  0  0  0  0  0  0  0  0
   21.7500   -2.8210    9.0310   C 0  0  0  0  0  0  0  0  0  0  0  0
   20.4750   -3.1150    9.5490   C 0  0  0  0  0  0  0  0  0  0  0  0
   19.4410   -2.1870    9.3850   C 0  0  0  0  0  0  0  0  0  0  0  0
   14.5550    0.4580    9.3040   N 0  0  0  0  0  0  0  0  0  0  0  0
   14.1830   -0.6430    9.9890   C 0  0  0  0  0  0  0  0  0  0  0  0
   18.1490   -2.2240    9.7200   N 0  0  0  0  0  0  0  0  0  0  0  0
   15.7710    0.4450    8.9830   N 0  0  0  0  0  0  0  0  0  0  0  0
  1  2  2  0  0  0  0
  1 16  1  0  0  0  0
  2  3  1  0  0  0  0
  3  4  2  0  0  0  0
  4  5  1  0  0  0  0
  5  6  1  0  0  0  0
  5 16  2  0  0  0  0
  6  7  1  0  0  0  0
  6 18  2  0  0  0  0
  7  8  1  0  0  0  0
  7 17  2  0  0  0  0
  8  9  1  0  0  0  0
  9 10  2  0  0  0  0
  9 14  1  0  0  0  0
 10 11  1  0  0  0  0
 11 12  2  0  0  0  0
 12 13  1  0  0  0  0
 13 14  2  0  0  0  0
 14 17  1  0  0  0  0
 15 16  1  0  0  0  0
 15 18  1  0  0  0  0
M  END
>  <InstanceId>
2C3L_IDZ_A_1274

>  <ChemCompId>
IDZ

>  <PdbId>
2C3L

>  <ChainId>
A

>  <ResidueNumber>
1274

>  <InsertionCode>


>  <Model>
1

>  <AltIds>


>  <MissingHeavyAtoms>
0

>  <ObservedFormula>
C14 N4

>  <Name>
3-(1H-BENZIMIDAZOL-2-YL)-1H-INDAZOLE

>  <SystematicName>
3-(1H-benzimidazol-2-yl)-1H-indazole

>  <Synonyms>


>  <Type>
NON-POLYMER

>  <Formula>
C14 H10 N4

>  <MolecularWeight>
234.256

>  <ModifiedDate>
2011-06-04

>  <Parent>


>  <OneLetterCode>


>  <SubcomponentList>


>  <AmbiguousFlag>
N

>  <InChI>
InChI=1S/C14H10N4/c1-2-6-10-9(5-1)13(18-17-10)14-15-11-7-3-4-8-12(11)16-14/h1-8H,(H,15,16)(H,17,18)

>  <InChIKey>
JTKFRFMSUBOCIQ-UHFFFAOYSA-N

>  <SMILES>
c1ccc2c(c1)c(n[nH]2)c3[nH]c4ccccc4n3

$$$$
