6ELN_P4A_A_301
  RCSB PDB08022004323D
Coordinates from PDB:6ELN:A:301 Model:1 without hydrogens
 22 24  0  0  0  0            999 V2000
   63.4430   36.0480   22.1570   N 0  0  0  0  0  0  0  0  0  0  0  0
   63.2220   34.9920   23.0440   N 0  0  0  0  0  0  0  0  0  0  0  0
   64.0300   35.1520   24.0840   C 0  0  0  0  0  0  0  0  0  0  0  0
   64.7570   36.3780   23.9040   C 0  0  0  0  0  0  0  0  0  0  0  0
   64.3640   36.8890   22.6890   C 0  0  0  0  0  0  0  0  0  0  0  0
   64.0860   34.2760   25.2830   C 0  0  0  0  0  0  0  0  0  0  0  0
   65.7350   36.9840   24.8710   C 0  0  0  0  0  0  0  0  0  0  0  0
   64.8470   38.1530   22.0170   C 0  0  0  0  0  0  0  0  0  0  0  0
   67.1070   37.0390   24.5330   C 0  0  0  0  0  0  0  0  0  0  0  0
   68.0280   37.5920   25.4160   C 0  0  0  0  0  0  0  0  0  0  0  0
   67.6260   38.0630   26.6740   C 0  0  0  0  0  0  0  0  0  0  0  0
   66.2640   37.9920   27.0340   C 0  0  0  0  0  0  0  0  0  0  0  0
   65.3290   37.4280   26.1510   C 0  0  0  0  0  0  0  0  0  0  0  0
   62.8820   33.8680   25.9130   C 0  0  0  0  0  0  0  0  0  0  0  0
   62.9200   33.0990   27.0780   C 0  0  0  0  0  0  0  0  0  0  0  0
   64.1620   32.6860   27.5810   C 0  0  0  0  0  0  0  0  0  0  0  0
   65.3590   33.0710   26.9480   C 0  0  0  0  0  0  0  0  0  0  0  0
   65.3280   33.8520   25.8060   C 0  0  0  0  0  0  0  0  0  0  0  0
   64.2330   31.9450   28.7140   O 0  0  0  0  0  0  0  0  0  0  0  0
   61.6830   34.2380   25.3980   O 0  0  0  0  0  0  0  0  0  0  0  0
   68.6050   38.6090   27.4710   O 0  0  0  0  0  0  0  0  0  0  0  0
   68.3020   39.1960   28.7430   C 0  0  0  0  0  0  0  0  0  0  0  0
  1  2  1  0  0  0  0
  1  5  1  0  0  0  0
  2  3  2  0  0  0  0
  3  4  1  0  0  0  0
  3  6  1  0  0  0  0
  4  5  2  0  0  0  0
  4  7  1  0  0  0  0
  5  8  1  0  0  0  0
  6 14  2  0  0  0  0
  6 18  1  0  0  0  0
  7  9  2  0  0  0  0
  7 13  1  0  0  0  0
  9 10  1  0  0  0  0
 10 11  2  0  0  0  0
 11 12  1  0  0  0  0
 11 21  1  0  0  0  0
 12 13  2  0  0  0  0
 14 15  1  0  0  0  0
 14 20  1  0  0  0  0
 15 16  2  0  0  0  0
 16 17  1  0  0  0  0
 16 19  1  0  0  0  0
 17 18  2  0  0  0  0
 21 22  1  0  0  0  0
M  END
>  <InstanceId>
6ELN_P4A_A_301

>  <ChemCompId>
P4A

>  <PdbId>
6ELN

>  <ChainId>
A

>  <ResidueNumber>
301

>  <InsertionCode>


>  <Model>
1

>  <AltIds>


>  <MissingHeavyAtoms>
0

>  <ObservedFormula>
C17 N2 O3

>  <Name>
4-[4-(4-methoxyphenyl)-5-methyl-1H-pyrazol-3-yl]benzene-1,3-diol

>  <SystematicName>
4-[4-(4-methoxyphenyl)-5-methyl-1H-pyrazol-3-yl]benzene-1,3-diol

>  <Synonyms>
3-(2,4-dihydroxyphenyl)-4-(4-methoxyphenyl)-5-methyl-1h-pyrazole

>  <Type>
NON-POLYMER

>  <Formula>
C17 H16 N2 O3

>  <MolecularWeight>
296.321

>  <ModifiedDate>
2020-06-17

>  <Parent>


>  <OneLetterCode>


>  <SubcomponentList>


>  <AmbiguousFlag>
N

>  <InChI>
InChI=1S/C17H16N2O3/c1-10-16(11-3-6-13(22-2)7-4-11)17(19-18-10)14-8-5-12(20)9-15(14)21/h3-9,20-21H,1-2H3,(H,18,19)

>  <InChIKey>
GSBFARPNIZUMHA-UHFFFAOYSA-N

>  <SMILES>
Cc1c(c(n[nH]1)c2ccc(cc2O)O)c3ccc(cc3)OC

$$$$
