1MUE_CDD_B_248
  RCSB PDB08012015293D
Coordinates from PDB:1MUE:B:248 Model:1 without hydrogens
 32 34  0  0  0  0            999 V2000
   22.0800  -15.7580   25.0900   C 0  0  0  0  0  0  0  0  0  0  0  0
   20.9530  -16.4530   25.2050   N 0  3  0  0  0  0  0  0  0  0  0  0
   19.8510  -15.8890   25.7250   C 0  0  0  0  0  0  0  0  0  0  0  0
   19.8360  -14.5630   26.1210   C 0  0  0  0  0  0  0  0  0  0  0  0
   20.9710  -13.8180   25.9770   C 0  0  0  0  0  0  0  0  0  0  0  0
   22.1230  -14.4260   25.4800   C 0  0  0  0  0  0  0  0  0  0  0  0
   18.6030  -16.7060   25.9480   C 0  0  0  0  0  0  0  0  0  0  0  0
   17.9180  -17.0720   24.6620   C 0  0  0  0  0  0  0  0  0  0  0  0
   18.9660  -17.8240   26.5990   F 0  0  0  0  0  0  0  0  0  0  0  0
   17.7360  -16.0050   26.7280   F 0  0  0  0  0  0  0  0  0  0  0  0
   17.1580  -15.9350   24.1360   N 0  0  0  0  0  0  0  0  0  0  0  0
   17.9180  -15.2540   23.1780   C 0  0  0  0  0  0  0  0  0  0  0  0
   17.2740  -14.0320   22.4940   C 0  0  0  0  0  0  0  0  0  0  0  0
   18.0090  -13.4450   21.5160   N 0  0  0  0  0  0  0  0  0  0  0  0
   19.3550  -13.9470   21.1720   C 0  0  0  0  0  0  0  0  0  0  0  0
   19.9300  -15.0380   21.9380   C 0  0  0  0  0  0  0  0  0  0  0  0
   19.1980  -15.6190   22.9100   N 0  0  0  0  0  0  0  0  0  0  0  0
   17.5460  -12.2610   20.7780   C 0  0  0  0  0  0  0  0  0  0  0  0
   16.0670  -12.3310   20.4100   C 0  0  0  0  0  0  0  0  0  0  0  0
   15.2870  -11.4840   21.1270   N 0  0  0  0  0  0  0  0  0  0  0  0
   13.8690  -11.4110   20.7680   C 0  0  0  0  0  0  0  0  0  0  0  0
   12.9150  -11.4250   21.9620   C 0  0  0  0  0  0  0  0  0  0  0  0
   12.9000  -10.3750   22.8950   C 0  0  0  0  0  0  0  0  0  0  0  0
   12.0190  -10.4350   24.0000   C 0  0  0  0  0  0  0  0  0  0  0  0
   11.1120  -11.4930   24.1370   C 0  0  0  0  0  0  0  0  0  0  0  0
   11.1250  -12.5320   23.2100   C 0  0  0  0  0  0  0  0  0  0  0  0
   12.0370  -12.4940   22.1420   C 0  0  0  0  0  0  0  0  0  0  0  0
   16.1420  -13.6640   22.8260   O 0  0  0  0  0  0  0  0  0  0  0  0
   20.2420  -13.2370   19.8930  Cl 0  0  0  0  0  0  0  0  0  0  0  0
   15.6570  -13.1090   19.5420   O 0  0  0  0  0  0  0  0  0  0  0  0
   12.1890  -13.5200   21.2880   F 0  0  0  0  0  0  0  0  0  0  0  0
   20.9520  -17.7700   24.8070   O 0  5  0  0  0  0  0  0  0  0  0  0
  1  2  2  0  0  0  0
  1  6  1  0  0  0  0
  2  3  1  0  0  0  0
  2 32  1  0  0  0  0
  3  4  2  0  0  0  0
  3  7  1  0  0  0  0
  4  5  1  0  0  0  0
  5  6  2  0  0  0  0
  7  8  1  0  0  0  0
  7  9  1  0  0  0  0
  7 10  1  0  0  0  0
  8 11  1  0  0  0  0
 11 12  1  0  0  0  0
 12 13  1  0  0  0  0
 12 17  2  0  0  0  0
 13 14  1  0  0  0  0
 13 28  2  0  0  0  0
 14 15  1  0  0  0  0
 14 18  1  0  0  0  0
 15 16  2  0  0  0  0
 15 29  1  0  0  0  0
 16 17  1  0  0  0  0
 18 19  1  0  0  0  0
 19 20  1  0  0  0  0
 19 30  2  0  0  0  0
 20 21  1  0  0  0  0
 21 22  1  0  0  0  0
 22 23  1  0  0  0  0
 22 27  2  0  0  0  0
 23 24  2  0  0  0  0
 24 25  1  0  0  0  0
 25 26  2  0  0  0  0
 26 27  1  0  0  0  0
 27 31  1  0  0  0  0
M  CHG  2   2   1  32  -1
M  END
>  <InstanceId>
1MUE_CDD_B_248

>  <ChemCompId>
CDD

>  <PdbId>
1MUE

>  <ChainId>
B

>  <ResidueNumber>
248

>  <InsertionCode>


>  <Model>
1

>  <AltIds>


>  <MissingHeavyAtoms>
0

>  <ObservedFormula>
C20 N5 O3 F3 Cl

>  <Name>
2-(6-CHLORO-3-{[2,2-DIFLUORO-2-(1-OXIDO-2-PYRIDINYL)ETHYL]AMINO}-2-OXO-1(2H)-PYRAZINYL)-N-[(2-FLUOROPHENYL)METHYL]ACETAMIDE

>  <SystematicName>
2-[6-chloro-3-[[2,2-difluoro-2-(1-oxidopyridin-1-ium-2-yl)ethyl]amino]-2-oxo-pyrazin-1-yl]-N-[(2-fluorophenyl)methyl]ethanamide

>  <Synonyms>


>  <Type>
NON-POLYMER

>  <Formula>
C20 H17 Cl F3 N5 O3

>  <MolecularWeight>
467.829

>  <ModifiedDate>
2011-06-04

>  <Parent>


>  <OneLetterCode>


>  <SubcomponentList>


>  <AmbiguousFlag>
N

>  <InChI>
InChI=1S/C20H17ClF3N5O3/c21-16-10-26-18(27-12-20(23,24)15-7-3-4-8-29(15)32)19(31)28(16)11-17(30)25-9-13-5-1-2-6-14(13)22/h1-8,10H,9,11-12H2,(H,25,30)(H,26,27)

>  <InChIKey>
ZIGSBBKEPNQXRG-UHFFFAOYSA-N

>  <SMILES>
c1ccc(c(c1)CNC(=O)CN2C(=CN=C(C2=O)NCC(c3cccc[n+]3[O-])(F)F)Cl)F

$$$$
