2R3W_G3G_A_2501
  RCSB PDB08012017533D
Coordinates from PDB:2R3W:A:2501 Model:1 without hydrogens
 41 45  0  0  0  0            999 V2000
  -14.3310  -23.7390   21.5950   C 0  0  0  0  0  0  0  0  0  0  0  0
  -15.3530  -24.1980   20.7420   C 0  0  0  0  0  0  0  0  0  0  0  0
  -15.1890  -24.1640   19.3370   C 0  0  0  0  0  0  0  0  0  0  0  0
  -13.9890  -23.6390   18.7890   C 0  0  0  0  0  0  0  0  0  0  0  0
  -12.9540  -23.1730   19.6370   C 0  0  0  0  0  0  0  0  0  0  0  0
  -13.1220  -23.2360   21.0450   C 0  0  0  0  0  0  0  0  0  0  0  0
  -11.4530  -22.5260   18.9190   S 0  0  0  0  0  0  0  0  0  0  0  0
  -10.4410  -22.9580   19.8640   O 0  0  0  0  0  0  0  0  0  0  0  0
  -11.4620  -22.8280   17.4980   O 0  0  0  0  0  0  0  0  0  0  0  0
  -11.7850  -20.8490   19.1690   N 0  0  0  0  0  0  0  0  0  0  0  0
  -11.3140  -20.2390   20.4480   C 0  0  0  0  0  0  0  0  0  0  0  0
  -10.0190  -19.4370   20.3320   C 0  0  0  0  0  0  0  0  0  0  0  0
   -9.7610  -18.3880   21.2570   C 0  0  0  0  0  0  0  0  0  0  0  0
   -8.5750  -17.6190   21.1800   C 0  0  0  0  0  0  0  0  0  0  0  0
   -7.6360  -17.9210   20.1580   C 0  0  0  0  0  0  0  0  0  0  0  0
   -7.8860  -18.9840   19.2400   C 0  0  0  0  0  0  0  0  0  0  0  0
   -9.0850  -19.7410   19.3130   C 0  0  0  0  0  0  0  0  0  0  0  0
  -12.7230  -20.1930   18.1790   C 0  0  0  0  0  0  0  0  0  0  0  0
  -13.9960  -19.5630   18.7900   C 0  0  0  0  0  0  0  0  0  0  0  0
  -13.9390  -18.0960   18.5460   N 0  0  0  0  0  0  0  0  0  0  0  0
  -12.5240  -17.7280   18.2390   C 0  0  0  0  0  0  0  0  0  0  0  0
  -11.9750  -18.9730   17.4930   C 0  0  0  0  0  0  0  0  0  0  0  0
  -12.2670  -18.8910   16.0220   N 0  0  0  0  0  0  0  0  0  0  0  0
  -13.5820  -18.7510   15.3710   C 0  0  0  0  0  0  0  0  0  0  0  0
  -14.4510  -20.0070   15.3450   C 0  0  0  0  0  0  0  0  0  0  0  0
  -15.8720  -19.8700   15.4540   C 0  0  0  0  0  0  0  0  0  0  0  0
  -16.7360  -21.0020   15.4180   C 0  0  0  0  0  0  0  0  0  0  0  0
  -16.1640  -22.3050   15.2970   C 0  0  0  0  0  0  0  0  0  0  0  0
  -14.7490  -22.4520   15.2100   C 0  0  0  0  0  0  0  0  0  0  0  0
  -13.8860  -21.3130   15.2250   C 0  0  0  0  0  0  0  0  0  0  0  0
  -10.9520  -19.2580   15.0260   S 0  0  0  0  0  0  0  0  0  0  0  0
   -9.8450  -17.8890   15.0500   C 0  0  0  0  0  0  0  0  0  0  0  0
  -10.0740  -16.6150   14.4640   C 0  0  0  0  0  0  0  0  0  0  0  0
   -9.1040  -15.5650   14.5650   C 0  0  0  0  0  0  0  0  0  0  0  0
   -7.8480  -15.8000   15.2330   C 0  0  0  0  0  0  0  0  0  0  0  0
   -7.6070  -17.0790   15.8220   C 0  0  0  0  0  0  0  0  0  0  0  0
   -8.6140  -18.0850   15.7680   C 0  0  0  0  0  0  0  0  0  0  0  0
  -11.4410  -19.4500   13.6470   O 0  0  0  0  0  0  0  0  0  0  0  0
  -10.2500  -20.4100   15.6160   O 0  0  0  0  0  0  0  0  0  0  0  0
   -6.8850  -14.8540   15.3160   N 0  0  0  0  0  0  0  0  0  0  0  0
  -16.4950  -24.6810   21.2640   N 0  0  0  0  0  0  0  0  0  0  0  0
  1  2  2  0  0  0  0
  1  6  1  0  0  0  0
  2  3  1  0  0  0  0
  2 41  1  0  0  0  0
  3  4  2  0  0  0  0
  4  5  1  0  0  0  0
  5  7  1  0  0  0  0
  5  6  2  0  0  0  0
  7  9  2  0  0  0  0
  7 10  1  0  0  0  0
  7  8  2  0  0  0  0
 10 18  1  0  0  0  0
 10 11  1  0  0  0  0
 11 12  1  0  0  0  0
 12 17  1  0  0  0  0
 12 13  2  0  0  0  0
 13 14  1  0  0  0  0
 14 15  2  0  0  0  0
 15 16  1  0  0  0  0
 16 17  2  0  0  0  0
 18 22  1  0  0  0  0
 18 19  1  0  0  0  0
 19 20  1  0  0  0  0
 20 21  1  0  0  0  0
 21 22  1  0  0  0  0
 22 23  1  0  0  0  0
 23 31  1  0  0  0  0
 23 24  1  0  0  0  0
 24 25  1  0  0  0  0
 25 30  1  0  0  0  0
 25 26  2  0  0  0  0
 26 27  1  0  0  0  0
 27 28  2  0  0  0  0
 28 29  1  0  0  0  0
 29 30  2  0  0  0  0
 31 38  2  0  0  0  0
 31 32  1  0  0  0  0
 31 39  2  0  0  0  0
 32 33  1  0  0  0  0
 32 37  2  0  0  0  0
 33 34  2  0  0  0  0
 34 35  1  0  0  0  0
 35 40  1  0  0  0  0
 35 36  2  0  0  0  0
 36 37  1  0  0  0  0
M  END
>  <InstanceId>
2R3W_G3G_A_2501

>  <ChemCompId>
G3G

>  <PdbId>
2R3W

>  <ChainId>
A

>  <ResidueNumber>
2501

>  <InsertionCode>


>  <Model>
1

>  <AltIds>


>  <MissingHeavyAtoms>
0

>  <ObservedFormula>
C30 N5 O4 S2

>  <Name>
N,N'-(3S,4S)-PYRROLIDINE-3,4-DIYLBIS(4-AMINO-N-BENZYLBENZENESULFONAMIDE)

>  <SystematicName>
4-amino-N-[(3S,4S)-4-[(4-aminophenyl)sulfonyl-(phenylmethyl)amino]pyrrolidin-3-yl]-N-(phenylmethyl)benzenesulfonamide

>  <Synonyms>


>  <Type>
NON-POLYMER

>  <Formula>
C30 H33 N5 O4 S2

>  <MolecularWeight>
591.744

>  <ModifiedDate>
2011-06-04

>  <Parent>


>  <OneLetterCode>


>  <SubcomponentList>


>  <AmbiguousFlag>


>  <InChI>
InChI=1S/C30H33N5O4S2/c31-25-11-15-27(16-12-25)40(36,37)34(21-23-7-3-1-4-8-23)29-19-33-20-30(29)35(22-24-9-5-2-6-10-24)41(38,39)28-17-13-26(32)14-18-28/h1-18,29-30,33H,19-22,31-32H2/t29-,30-/m0/s1

>  <InChIKey>
XDDOZTWMJWWMBF-KYJUHHDHSA-N

>  <SMILES>
c1ccc(cc1)CN([C@H]2CNC[C@@H]2N(Cc3ccccc3)S(=O)(=O)c4ccc(cc4)N)S(=O)(=O)c5ccc(cc5)N

$$$$
