4ZX0_5L2_A_302
  RCSB PDB08022000413D
Coordinates from PDB:4ZX0:A:302 Model:1 without hydrogens
 31 32  0  0  0  0            999 V2000
   -2.1120    5.2750   11.9850   C 0  0  0  0  0  0  0  0  0  0  0  0
   -0.7750    5.8950   11.9330   C 0  0  0  0  0  0  0  0  0  0  0  0
    0.1990    5.1520   11.0810   C 0  0  0  0  0  0  0  0  0  0  0  0
   -0.0080    3.7460   10.6720   C 0  0  0  0  0  0  0  0  0  0  0  0
   -1.1050    3.0430   11.4630   C 0  0  0  0  0  0  0  0  0  0  0  0
   -1.3690    1.7160   11.1600   C 0  0  0  0  0  0  0  0  0  0  0  0
   -0.8440    7.3450   11.6640   O 0  0  0  0  0  0  0  0  0  0  0  0
    1.0560    5.8550   10.1590   O 0  0  0  0  0  0  0  0  0  0  0  0
    0.1590    3.4160    9.3270   O 0  0  0  0  0  0  0  0  0  0  0  0
   -2.6110    1.3990   11.7020   O 0  0  0  0  0  0  0  0  0  0  0  0
   -3.3830    0.4860   11.0030   C 0  0  0  0  0  0  0  0  0  0  0  0
   -3.2210    0.2870    9.8670   O 0  0  0  0  0  0  0  0  0  0  0  0
   -4.4310   -0.2420   11.8440   C 0  0  0  0  0  0  0  0  0  0  0  0
   -2.1550    3.8720   12.0900   O 0  0  0  0  0  0  0  0  0  0  0  0
   -2.8810    5.7780   13.5760   S 0  0  0  0  0  0  0  0  0  0  0  0
   -1.8170    5.8150   14.6920   O 0  0  0  0  0  0  0  0  0  0  0  0
   -3.4730    7.1430   13.1820   O 0  0  0  0  0  0  0  0  0  0  0  0
   -3.9370    4.9210   13.9680   N 0  0  0  0  0  0  0  0  0  0  0  0
   -3.7270    3.9060   14.5620   C 0  0  0  0  0  0  0  0  0  0  0  0
   -5.1730    3.1400   14.5860   C 0  0  0  0  0  0  0  0  0  0  0  0
   -4.9830    1.7090   15.0960   O 0  0  0  0  0  0  0  0  0  0  0  0
   -5.6870    1.0490   16.4810   S 0  0  0  0  0  0  0  0  0  0  0  0
   -4.7970    1.5760   17.5790   O 0  0  0  0  0  0  0  0  0  0  0  0
   -7.1810    1.3700   16.6650   O 0  0  0  0  0  0  0  0  0  0  0  0
   -5.2550   -0.4960   16.4730   N 0  0  0  0  0  0  0  0  0  0  0  0
   -5.5250    3.2560   13.4790   C 0  0  0  0  0  0  0  0  0  0  0  0
   -5.0470    4.6570   13.0340   C 0  0  0  0  0  0  0  0  0  0  0  0
   -6.1490    5.6680   13.1830   C 0  0  0  0  0  0  0  0  0  0  0  0
   -6.6220    5.8290   14.1980   O 0  0  0  0  0  0  0  0  0  0  0  0
   -6.4760    6.3960   12.0660   O 0  0  0  0  0  0  0  0  0  0  0  0
   -7.3360    7.4680   12.1820   C 0  0  0  0  0  0  0  0  0  0  0  0
  1  2  1  0  0  0  0
  1 14  1  0  0  0  0
  1 15  1  0  0  0  0
  2  3  1  0  0  0  0
  2  7  1  0  0  0  0
  3  4  1  0  0  0  0
  3  8  1  0  0  0  0
  4  5  1  0  0  0  0
  4  9  1  0  0  0  0
  5  6  1  0  0  0  0
  5 14  1  0  0  0  0
  6 10  1  0  0  0  0
 10 11  1  0  0  0  0
 11 12  2  0  0  0  0
 11 13  1  0  0  0  0
 15 16  2  0  0  0  0
 15 17  2  0  0  0  0
 15 18  1  0  0  0  0
 18 19  1  0  0  0  0
 18 27  1  0  0  0  0
 19 20  1  0  0  0  0
 20 21  1  0  0  0  0
 20 26  1  0  0  0  0
 21 22  1  0  0  0  0
 22 23  2  0  0  0  0
 22 24  2  0  0  0  0
 22 25  1  0  0  0  0
 26 27  1  0  0  0  0
 27 28  1  0  0  0  0
 28 29  2  0  0  0  0
 28 30  1  0  0  0  0
 30 31  1  0  0  0  0
M  END
>  <InstanceId>
4ZX0_5L2_A_302

>  <ChemCompId>
5L2

>  <PdbId>
4ZX0

>  <ChainId>
A

>  <ResidueNumber>
302

>  <InsertionCode>


>  <Model>
1

>  <AltIds>


>  <MissingHeavyAtoms>
0

>  <ObservedFormula>
C14 N2 O13 S2

>  <Name>
methyl (2S,4R)-1-[(2S,3R,4R,5S,6S)-6-(acetyloxymethyl)-3,4,5-tris(oxidanyl)oxan-2-yl]sulfonyl-4-sulfamoyloxy-pyrrolidine-2-carb  oxylate

>  <SystematicName>
methyl (2S,4R)-1-[(2S,3R,4R,5S,6S)-6-(acetyloxymethyl)-3,4,5-tris(oxidanyl)oxan-2-yl]sulfonyl-4-sulfamoyloxy-pyrrolidine-2-carb oxylate

>  <Synonyms>


>  <Type>
D-saccharide

>  <Formula>
C14 H24 N2 O13 S2

>  <MolecularWeight>
492.476

>  <ModifiedDate>
2020-07-17

>  <Parent>


>  <OneLetterCode>


>  <SubcomponentList>


>  <AmbiguousFlag>
N

>  <InChI>
InChI=1S/C14H24N2O13S2/c1-6(17)27-5-9-10(18)11(19)12(20)14(28-9)30(22,23)16-4-7(29-31(15,24)25)3-8(16)13(21)26-2/h7-12,14,18-20H,3-5H2,1-2H3,(H2,15,24,25)/t7-,8+,9+,10-,11-,12-,14+/m1/s1

>  <InChIKey>
GRPKARGAWXJOSH-DASVEIIPSA-N

>  <SMILES>
CC(=O)OC[C@H]1[C@H]([C@H]([C@H]([C@@H](O1)S(=O)(=O)N2C[C@@H](C[C@H]2C(=O)OC)OS(=O)(=O)N)O)O)O

$$$$
