5OSS_AEZ_B_505
  RCSB PDB08022002443D
Coordinates from PDB:5OSS:B:505 Model:1 without hydrogens
 14 15  0  0  0  0            999 V2000
  -19.4770  -29.2510   -6.8130   C 0  0  0  0  0  0  0  0  0  0  0  0
  -19.5160  -28.1340   -5.7950   C 0  0  0  0  0  0  0  0  0  0  0  0
  -20.6970  -27.2340   -5.8820   C 0  0  0  0  0  0  0  0  0  0  0  0
  -19.4820  -28.7880   -4.4810   C 0  0  0  0  0  0  0  0  0  0  0  0
  -19.7000  -29.3590   -2.3500   C 0  0  0  0  0  0  0  0  0  0  0  0
  -18.2090  -30.0800   -6.5460   C 0  0  0  0  0  0  0  0  0  0  0  0
  -18.8690  -30.1150   -4.2470   C 0  0  0  0  0  0  0  0  0  0  0  0
  -18.2220  -30.9250   -5.2710   C 0  0  0  0  0  0  0  0  0  0  0  0
  -16.9070  -31.3430   -4.8550   O 0  0  0  0  0  0  0  0  0  0  0  0
  -19.4440  -28.7160   -8.1450   O 0  0  0  0  0  0  0  0  0  0  0  0
  -17.8780  -30.9340   -7.6270   O 0  0  0  0  0  0  0  0  0  0  0  0
  -21.9250  -27.9320   -5.6800   O 0  0  0  0  0  0  0  0  0  0  0  0
  -19.0440  -30.3680   -2.9520   N 0  0  0  0  0  0  0  0  0  0  0  0
  -19.9880  -28.4050   -3.2930   N 0  0  0  0  0  0  0  0  0  0  0  0
 10  1  1  0  0  0  0
 11  6  1  0  0  0  0
  1  6  1  0  0  0  0
  1  2  1  0  0  0  0
  6  8  1  0  0  0  0
  3  2  1  0  0  0  0
  3 12  1  0  0  0  0
  2  4  1  0  0  0  0
  8  9  1  0  0  0  0
  8  7  1  0  0  0  0
  4  7  2  0  0  0  0
  4 14  1  0  0  0  0
  7 13  1  0  0  0  0
 14  5  1  0  0  0  0
 13  5  2  0  0  0  0
M  END
>  <InstanceId>
5OSS_AEZ_B_505

>  <ChemCompId>
AEZ

>  <PdbId>
5OSS

>  <ChainId>
B

>  <ResidueNumber>
505

>  <InsertionCode>


>  <Model>
1

>  <AltIds>


>  <MissingHeavyAtoms>
0

>  <ObservedFormula>
C8 N2 O4

>  <Name>
(4~{S},5~{S},6~{R},7~{R})-7-(hydroxymethyl)-4,5,6,7-tetrahydro-1~{H}-benzimidazole-4,5,6-triol

>  <SystematicName>
(4~{S},5~{S},6~{R},7~{R})-7-(hydroxymethyl)-4,5,6,7-tetrahydro-1~{H}-benzimidazole-4,5,6-triol

>  <Synonyms>


>  <Type>
NON-POLYMER

>  <Formula>
C8 H12 N2 O4

>  <MolecularWeight>
200.192

>  <ModifiedDate>
2018-04-06

>  <Parent>


>  <OneLetterCode>


>  <SubcomponentList>


>  <AmbiguousFlag>
N

>  <InChI>
InChI=1S/C8H12N2O4/c11-1-3-4-5(10-2-9-4)7(13)8(14)6(3)12/h2-3,6-8,11-14H,1H2,(H,9,10)/t3-,6+,7-,8-/m0/s1

>  <InChIKey>
MTUBISADCTVQLI-FBXHKNTESA-N

>  <SMILES>
c1[nH]c2c(n1)[C@@H]([C@H]([C@@H]([C@H]2CO)O)O)O

$$$$
