6CSQ_F9P_A_804
  RCSB PDB08022004173D
Coordinates from PDB:6CSQ:A:804 Model:1 without hydrogens
 10 10  0  0  0  0            999 V2000
  -27.8700   -4.4960    8.7260   C 0  0  0  0  0  0  0  0  0  0  0  0
  -27.7190   -2.8850    6.8220   C 0  0  0  0  0  0  0  0  0  0  0  0
  -28.6620   -3.7180    7.6760   C 0  0  0  0  0  0  0  0  0  0  0  0
  -29.7710   -2.8890    8.3250   C 0  0  0  0  0  0  0  0  0  0  0  0
  -30.6620   -3.6950    9.2560   C 0  0  0  0  0  0  0  0  0  0  0  0
  -29.8170   -4.4000   10.3110   C 0  0  0  0  0  0  0  0  0  0  0  0
  -28.7870   -5.3000    9.6520   C 0  0  0  0  0  0  0  0  0  0  0  0
  -26.3430   -2.8200    7.2550   N 0  0  0  0  0  0  0  0  0  0  0  0
  -28.0250   -2.2750    5.8170   O 0  0  0  0  0  0  0  0  0  0  0  0
  -25.5690   -2.0660    6.4380   O 0  0  0  0  0  0  0  0  0  0  0  0
  9  2  2  0  0  0  0
 10  8  1  0  0  0  0
  2  8  1  0  0  0  0
  2  3  1  0  0  0  0
  3  4  1  0  0  0  0
  3  1  1  0  0  0  0
  4  5  1  0  0  0  0
  1  7  1  0  0  0  0
  5  6  1  0  0  0  0
  7  6  1  0  0  0  0
M  END
>  <InstanceId>
6CSQ_F9P_A_804

>  <ChemCompId>
F9P

>  <PdbId>
6CSQ

>  <ChainId>
A

>  <ResidueNumber>
804

>  <InsertionCode>


>  <Model>
1

>  <AltIds>


>  <MissingHeavyAtoms>
0

>  <ObservedFormula>
C7 N O2

>  <Name>
N-hydroxycyclohexanecarboxamide

>  <SystematicName>
~{N}-oxidanylcyclohexanecarboxamide

>  <Synonyms>
cyclohexylhydroxamate

>  <Type>
NON-POLYMER

>  <Formula>
C7 H13 N O2

>  <MolecularWeight>
143.184

>  <ModifiedDate>
2020-06-17

>  <Parent>


>  <OneLetterCode>


>  <SubcomponentList>


>  <AmbiguousFlag>
N

>  <InChI>
InChI=1S/C7H13NO2/c9-7(8-10)6-4-2-1-3-5-6/h6,10H,1-5H2,(H,8,9)

>  <InChIKey>
RFWDAWXPYZTVSN-UHFFFAOYSA-N

>  <SMILES>
C1CCC(CC1)C(=O)NO

$$$$
