4GE1_TSS_A_201
  RCSB PDB08012021483D
Coordinates from PDB:4GE1:A:201 Model:1 without hydrogens
 12 13  0  0  0  0            999 V2000
    4.8580    6.1310   46.6830   N 0  0  0  0  0  0  0  0  0  0  0  0
    6.1600    5.5690   46.4170   C 0  0  0  0  0  0  0  0  0  0  0  0
    6.8970    4.9790   47.5780   C 0  0  0  0  0  0  0  0  0  0  0  0
    6.1010    4.2420   48.6080   C 0  0  0  0  0  0  0  0  0  0  0  0
    5.8520    4.6530   49.9100   C 0  0  0  0  0  0  0  0  0  0  0  0
    5.1120    3.7150   50.5370   N 0  0  0  0  0  0  0  0  0  0  0  0
    4.8490    2.6800   49.6630   C 0  0  0  0  0  0  0  0  0  0  0  0
    5.4520    2.9770   48.4670   C 0  0  0  0  0  0  0  0  0  0  0  0
    4.1120    1.4740   49.8170   C 0  0  0  0  0  0  0  0  0  0  0  0
    4.0110    0.5800   48.7550   C 0  0  0  0  0  0  0  0  0  0  0  0
    4.6260    0.8820   47.5380   C 0  0  0  0  0  0  0  0  0  0  0  0
    5.3450    2.0730   47.3850   C 0  0  0  0  0  0  0  0  0  0  0  0
  1  2  1  0  0  0  0
  2  3  1  0  0  0  0
  3  4  1  0  0  0  0
  4  5  2  0  0  0  0
  4  8  1  0  0  0  0
  5  6  1  0  0  0  0
  6  7  1  0  0  0  0
  7  8  1  0  0  0  0
  7  9  2  0  0  0  0
  8 12  2  0  0  0  0
  9 10  1  0  0  0  0
 10 11  2  0  0  0  0
 11 12  1  0  0  0  0
M  END
>  <InstanceId>
4GE1_TSS_A_201

>  <ChemCompId>
TSS

>  <PdbId>
4GE1

>  <ChainId>
A

>  <ResidueNumber>
201

>  <InsertionCode>


>  <Model>
1

>  <AltIds>


>  <MissingHeavyAtoms>
0

>  <ObservedFormula>
C10 N2

>  <Name>
2-(1H-INDOL-3-YL)ETHANAMINE

>  <SystematicName>
2-(1H-indol-3-yl)ethanamine

>  <Synonyms>
TRYPTAMINE

>  <Type>
NON-POLYMER

>  <Formula>
C10 H12 N2

>  <MolecularWeight>
160.216

>  <ModifiedDate>
2011-06-04

>  <Parent>


>  <OneLetterCode>


>  <SubcomponentList>


>  <AmbiguousFlag>
N

>  <InChI>
InChI=1S/C10H12N2/c11-6-5-8-7-12-10-4-2-1-3-9(8)10/h1-4,7,12H,5-6,11H2

>  <InChIKey>
APJYDQYYACXCRM-UHFFFAOYSA-N

>  <SMILES>
c1ccc2c(c1)c(c[nH]2)CCN

$$$$
