4NBL_2J6_A_401
  RCSB PDB08012022363D
Coordinates from PDB:4NBL:A:401 Model:1 without hydrogens
 22 24  0  0  0  0            999 V2000
   30.6880   21.4290   -5.8250   C 0  0  0  0  0  0  0  0  0  0  0  0
   28.9290   26.6970   -6.7270   C 0  0  0  0  0  0  0  0  0  0  0  0
   31.0720   20.7940   -4.6610   C 0  0  0  0  0  0  0  0  0  0  0  0
   29.1410   24.3370   -6.3500   C 0  0  0  0  0  0  0  0  0  0  0  0
   29.4560   24.1620   -7.6320   N 0  0  0  0  0  0  0  0  0  0  0  0
   29.5180   25.1700   -8.4820   C 0  0  0  0  0  0  0  0  0  0  0  0
   29.2560   26.4630   -8.0540   C 0  0  0  0  0  0  0  0  0  0  0  0
   28.8580   25.6130   -5.8470   C 0  0  0  0  0  0  0  0  0  0  0  0
   29.0720   23.2580   -5.4850   N 0  0  0  0  0  0  0  0  0  0  0  0
   29.2700   21.8920   -5.9710   C 0  0  0  0  0  0  0  0  0  0  0  0
   32.3680   20.3470   -4.5320   C 0  0  0  0  0  0  0  0  0  0  0  0
   33.2750   20.5420   -5.5580   C 0  0  0  0  0  0  0  0  0  0  0  0
   32.9030   21.1750   -6.7370   C 0  0  0  0  0  0  0  0  0  0  0  0
   31.5920   21.6240   -6.8660   C 0  0  0  0  0  0  0  0  0  0  0  0
   31.1910   22.2550   -8.0060   O 0  0  0  0  0  0  0  0  0  0  0  0
   34.5300   20.0910   -5.4050   F 0  0  0  0  0  0  0  0  0  0  0  0
   28.5230   25.8040   -4.4130   C 0  0  0  0  0  0  0  0  0  0  0  0
   28.1850   24.7560   -3.6660   N 0  0  0  0  0  0  0  0  0  0  0  0
   27.8810   24.9040   -2.3820   C 0  0  0  0  0  0  0  0  0  0  0  0
   27.9180   26.1660   -1.8130   C 0  0  0  0  0  0  0  0  0  0  0  0
   28.2720   27.2420   -2.6190   C 0  0  0  0  0  0  0  0  0  0  0  0
   28.5650   27.0330   -3.8980   N 0  0  0  0  0  0  0  0  0  0  0  0
  6  7  2  0  0  0  0
  6  5  1  0  0  0  0
  7  2  1  0  0  0  0
 15 14  1  0  0  0  0
  5  4  2  0  0  0  0
 14 13  2  0  0  0  0
 14  1  1  0  0  0  0
 13 12  1  0  0  0  0
  2  8  2  0  0  0  0
  4  8  1  0  0  0  0
  4  9  1  0  0  0  0
 10  1  1  0  0  0  0
 10  9  1  0  0  0  0
  8 17  1  0  0  0  0
  1  3  2  0  0  0  0
 12 16  1  0  0  0  0
 12 11  2  0  0  0  0
  3 11  1  0  0  0  0
 17 22  2  0  0  0  0
 17 18  1  0  0  0  0
 22 21  1  0  0  0  0
 18 19  2  0  0  0  0
 21 20  2  0  0  0  0
 19 20  1  0  0  0  0
M  END
>  <InstanceId>
4NBL_2J6_A_401

>  <ChemCompId>
2J6

>  <PdbId>
4NBL

>  <ChainId>
A

>  <ResidueNumber>
401

>  <InsertionCode>


>  <Model>
1

>  <AltIds>


>  <MissingHeavyAtoms>
0

>  <ObservedFormula>
C16 N4 O F

>  <Name>
5-fluoro-2-({[3-(pyrimidin-2-yl)pyridin-2-yl]amino}methyl)phenol

>  <SystematicName>
5-fluoranyl-2-[[(3-pyrimidin-2-ylpyridin-2-yl)amino]methyl]phenol

>  <Synonyms>


>  <Type>
NON-POLYMER

>  <Formula>
C16 H13 F N4 O

>  <MolecularWeight>
296.299

>  <ModifiedDate>
2013-12-27

>  <Parent>


>  <OneLetterCode>


>  <SubcomponentList>


>  <AmbiguousFlag>
N

>  <InChI>
InChI=1S/C16H13FN4O/c17-12-5-4-11(14(22)9-12)10-21-16-13(3-1-6-18-16)15-19-7-2-8-20-15/h1-9,22H,10H2,(H,18,21)

>  <InChIKey>
YTVDOVJPKJLMHL-UHFFFAOYSA-N

>  <SMILES>
c1cc(c(nc1)NCc2ccc(cc2O)F)c3ncccn3

$$$$
