4ZCS_CDC_A_801
  RCSB PDB08022000373D
Coordinates from PDB:4ZCS:A:801 Model:1 without hydrogens
 31 32  0  0  0  0            999 V2000
   17.8020   21.1560   53.4900   N 0  0  0  0  0  0  0  0  0  0  0  0
   18.2910   20.4930   54.5120   C 0  0  0  0  0  0  0  0  0  0  0  0
   17.4400   20.1140   55.5530   N 0  0  0  0  0  0  0  0  0  0  0  0
   16.0620   20.3600   55.5130   C 0  0  0  0  0  0  0  0  0  0  0  0
   15.5540   21.0880   54.4450   C 0  0  0  0  0  0  0  0  0  0  0  0
   16.4350   21.4720   53.4330   C 0  0  0  0  0  0  0  0  0  0  0  0
   19.4910   20.1990   54.5020   O 0  0  0  0  0  0  0  0  0  0  0  0
   15.2550   19.9780   56.4930   N 0  0  0  0  0  0  0  0  0  0  0  0
   18.6960   21.5600   52.4480   C 0  0  0  0  0  0  0  0  0  0  0  0
   18.2900   20.9010   51.1620   C 0  0  0  0  0  0  0  0  0  0  0  0
   18.8680   19.6240   51.1600   O 0  0  0  0  0  0  0  0  0  0  0  0
   18.9380   21.8390   50.1460   C 0  0  0  0  0  0  0  0  0  0  0  0
   18.7800   23.2060   50.7810   C 0  0  0  0  0  0  0  0  0  0  0  0
   18.5530   22.9380   52.2330   O 0  0  0  0  0  0  0  0  0  0  0  0
   20.3160   21.6080   50.0690   O 0  0  0  0  0  0  0  0  0  0  0  0
   17.6840   23.9490   50.0700   C 0  0  0  0  0  0  0  0  0  0  0  0
   16.4310   23.3560   50.3790   O 0  0  0  0  0  0  0  0  0  0  0  0
   15.1560   24.0110   49.7620   P 0  0  0  0  0  0  0  0  0  0  0  0
   15.0980   25.3870   50.1600   O 0  0  0  0  0  0  0  0  0  0  0  0
   13.9720   23.1220   49.9860   O 0  0  0  0  0  0  0  0  0  0  0  0
   15.3970   24.1700   48.2440   O 0  0  0  0  0  0  0  0  0  0  0  0
   15.2780   23.0340   47.1080   P 0  0  0  0  0  0  0  0  0  0  0  0
   15.8380   23.7430   45.8790   O 0  0  0  0  0  0  0  0  0  0  0  0
   13.8500   22.8760   46.6960   O 0  5  0  0  0  0  0  0  0  0  0  0
   15.9070   21.7780   47.5990   O 0  0  0  0  0  0  0  0  0  0  0  0
   17.0690   23.2560   45.3130   C 0  0  0  0  0  0  0  0  0  0  0  0
   17.5660   24.3220   44.3330   C 0  0  0  0  0  0  0  0  0  0  0  0
   16.7190   24.4490   43.1060   N 0  3  0  0  0  0  0  0  0  0  0  0
   16.7230   23.2740   42.2430   C 0  0  0  0  0  0  0  0  0  0  0  0
   17.3240   25.5650   42.3630   C 0  0  0  0  0  0  0  0  0  0  0  0
   15.2830   24.7800   43.4040   C 0  0  0  0  0  0  0  0  0  0  0  0
  1  2  1  0  0  0  0
  1  6  1  0  0  0  0
  1  9  1  0  0  0  0
  2  3  1  0  0  0  0
  2  7  2  0  0  0  0
  3  4  2  0  0  0  0
  4  5  1  0  0  0  0
  4  8  1  0  0  0  0
  5  6  2  0  0  0  0
  9 10  1  0  0  0  0
  9 14  1  0  0  0  0
 10 11  1  0  0  0  0
 10 12  1  0  0  0  0
 12 13  1  0  0  0  0
 12 15  1  0  0  0  0
 13 14  1  0  0  0  0
 13 16  1  0  0  0  0
 16 17  1  0  0  0  0
 17 18  1  0  0  0  0
 18 19  2  0  0  0  0
 18 20  1  0  0  0  0
 18 21  1  0  0  0  0
 21 22  1  0  0  0  0
 22 23  1  0  0  0  0
 22 24  1  0  0  0  0
 22 25  2  0  0  0  0
 23 26  1  0  0  0  0
 26 27  1  0  0  0  0
 27 28  1  0  0  0  0
 28 29  1  0  0  0  0
 28 30  1  0  0  0  0
 28 31  1  0  0  0  0
M  CHG  2  24  -1  28   1
M  END
>  <InstanceId>
4ZCS_CDC_A_801

>  <ChemCompId>
CDC

>  <PdbId>
4ZCS

>  <ChainId>
A

>  <ResidueNumber>
801

>  <InsertionCode>


>  <Model>
1

>  <AltIds>


>  <MissingHeavyAtoms>
0

>  <ObservedFormula>
C14 N4 O11 P2

>  <Name>
[2-CYTIDYLATE-O'-PHOSPHONYLOXYL]-ETHYL-TRIMETHYL-AMMONIUM

>  <SystematicName>
[[(2R,3S,4R,5R)-5-(4-amino-2-oxo-pyrimidin-1-yl)-3,4-dihydroxy-oxolan-2-yl]methoxy-hydroxy-phosphoryl] 2-trimethylazaniumylethyl phosphate

>  <Synonyms>


>  <Type>
NON-POLYMER

>  <Formula>
C14 H26 N4 O11 P2

>  <MolecularWeight>
488.324

>  <ModifiedDate>
2011-06-04

>  <Parent>


>  <OneLetterCode>


>  <SubcomponentList>


>  <AmbiguousFlag>
N

>  <InChI>
InChI=1S/C14H26N4O11P2/c1-18(2,3)6-7-26-30(22,23)29-31(24,25)27-8-9-11(19)12(20)13(28-9)17-5-4-10(15)16-14(17)21/h4-5,9,11-13,19-20H,6-8H2,1-3H3,(H3-,15,16,21,22,23,24,25)/t9-,11-,12-,13-/m1/s1

>  <InChIKey>
RZZPDXZPRHQOCG-OJAKKHQRSA-N

>  <SMILES>
C[N+](C)(C)CCO[P@@](=O)([O-])O[P@@](=O)(O)OC[C@@H]1[C@H]([C@H]([C@@H](O1)N2C=CC(=NC2=O)N)O)O

$$$$
