4NH7_E0G_A_301
  RCSB PDB08012022383D
Coordinates from PDB:4NH7:A:301 Model:1 without hydrogens
 33 36  0  0  0  0            999 V2000
   17.0510    7.7530   14.3260   C 0  0  0  0  0  0  0  0  0  0  0  0
   18.0480   10.0130   15.0560   C 0  0  0  0  0  0  0  0  0  0  0  0
   18.7670   11.1650   14.6590   C 0  0  0  0  0  0  0  0  0  0  0  0
   20.3350   12.1020   13.0440   N 0  0  0  0  0  0  0  0  0  0  0  0
   18.6360   12.0180   16.9200   C 0  0  0  0  0  0  0  0  0  0  0  0
   18.5220   10.9760   12.3110   O 0  0  0  0  0  0  0  0  0  0  0  0
   17.7590    9.0130   14.1260   N 0  0  0  0  0  0  0  0  0  0  0  0
   17.3120   10.8520   18.6000   N 0  0  0  0  0  0  0  0  0  0  0  0
   17.8980   10.9080   17.3040   C 0  0  0  0  0  0  0  0  0  0  0  0
   17.6210    9.8950   16.3850   C 0  0  0  0  0  0  0  0  0  0  0  0
   17.4000    9.6860   19.3620   N 0  0  0  0  0  0  0  0  0  0  0  0
   16.8200    5.3870   13.4900   C 0  0  0  0  0  0  0  0  0  0  0  0
   15.3190    5.5560   13.3390   C 0  0  0  0  0  0  0  0  0  0  0  0
   14.7710    6.6000   14.3030   C 0  0  0  0  0  0  0  0  0  0  0  0
   15.5390    7.9410   14.2180   C 0  0  0  0  0  0  0  0  0  0  0  0
   16.7020    9.9570   20.4520   C 0  0  0  0  0  0  0  0  0  0  0  0
   16.1740   11.2740   20.4310   C 0  0  0  0  0  0  0  0  0  0  0  0
   16.5750   11.8090   19.2240   C 0  0  0  0  0  0  0  0  0  0  0  0
   15.0300   13.4800   20.9470   C 0  0  0  0  0  0  0  0  0  0  0  0
   13.6630   13.0200   18.8860   C 0  0  0  0  0  0  0  0  0  0  0  0
   19.0590   12.1460   15.6130   C 0  0  0  0  0  0  0  0  0  0  0  0
   17.1040    7.7430   21.1240   F 0  0  0  0  0  0  0  0  0  0  0  0
   14.8660   11.5470   22.3620   O 0  0  0  0  0  0  0  0  0  0  0  0
   17.1100    9.2150   22.6110   F 0  0  0  0  0  0  0  0  0  0  0  0
   15.3050    8.6840   21.7970   F 0  0  0  0  0  0  0  0  0  0  0  0
   14.7020    4.2810   13.5950   O 0  0  0  0  0  0  0  0  0  0  0  0
   19.2110   11.4010   13.2450   C 0  0  0  0  0  0  0  0  0  0  0  0
   17.5420    6.7180   13.3250   C 0  0  0  0  0  0  0  0  0  0  0  0
   16.1690   13.1730   18.7520   C 0  0  0  0  0  0  0  0  0  0  0  0
   14.9090   13.7230   19.4330   C 0  0  0  0  0  0  0  0  0  0  0  0
   15.3330   12.0460   21.3380   C 0  0  0  0  0  0  0  0  0  0  0  0
   14.7920   15.2130   19.1430   C 0  0  0  0  0  0  0  0  0  0  0  0
   16.5520    8.8940   21.4930   C 0  0  0  0  0  0  0  0  0  0  0  0
  6 27  2  0  0  0  0
  4 27  1  0  0  0  0
 27  3  1  0  0  0  0
 28 12  1  0  0  0  0
 28  1  1  0  0  0  0
 13 12  1  0  0  0  0
 13 26  1  0  0  0  0
 13 14  1  0  0  0  0
  7  1  1  0  0  0  0
  7  2  1  0  0  0  0
 15 14  1  0  0  0  0
 15  1  1  0  0  0  0
  3  2  2  0  0  0  0
  3 21  1  0  0  0  0
  2 10  1  0  0  0  0
 21  5  2  0  0  0  0
 10  9  2  0  0  0  0
  5  9  1  0  0  0  0
  9  8  1  0  0  0  0
  8 18  1  0  0  0  0
  8 11  1  0  0  0  0
 29 18  1  0  0  0  0
 29 30  1  0  0  0  0
 20 30  1  0  0  0  0
 32 30  1  0  0  0  0
 18 17  2  0  0  0  0
 11 16  2  0  0  0  0
 30 19  1  0  0  0  0
 17 16  1  0  0  0  0
 17 31  1  0  0  0  0
 16 33  1  0  0  0  0
 19 31  1  0  0  0  0
 22 33  1  0  0  0  0
 31 23  2  0  0  0  0
 33 25  1  0  0  0  0
 33 24  1  0  0  0  0
M  END
>  <InstanceId>
4NH7_E0G_A_301

>  <ChemCompId>
E0G

>  <PdbId>
4NH7

>  <ChainId>
A

>  <ResidueNumber>
301

>  <InsertionCode>


>  <Model>
1

>  <AltIds>


>  <MissingHeavyAtoms>
0

>  <ObservedFormula>
C23 N4 O3 F3

>  <Name>
4-[6,6-dimethyl-4-oxidanylidene-3-(trifluoromethyl)-5,7-dihydroindazol-1-yl]-2-[(4-oxidanylcyclohexyl)amino]benzamide

>  <SystematicName>
4-[6,6-dimethyl-4-oxidanylidene-3-(trifluoromethyl)-5,7-dihydroindazol-1-yl]-2-[(4-oxidanylcyclohexyl)amino]benzamide

>  <Synonyms>


>  <Type>
NON-POLYMER

>  <Formula>
C23 H27 F3 N4 O3

>  <MolecularWeight>
464.481

>  <ModifiedDate>
2017-11-24

>  <Parent>


>  <OneLetterCode>


>  <SubcomponentList>


>  <AmbiguousFlag>
N

>  <InChI>
InChI=1S/C23H27F3N4O3/c1-22(2)10-17-19(18(32)11-22)20(23(24,25)26)29-30(17)13-5-8-15(21(27)33)16(9-13)28-12-3-6-14(31)7-4-12/h5,8-9,12,14,28,31H,3-4,6-7,10-11H2,1-2H3,(H2,27,33)/t12-,14-

>  <InChIKey>
ZFVRYNYOPQZKDG-MQMHXKEQSA-N

>  <SMILES>
CC1(Cc2c(c(nn2c3ccc(c(c3)NC4CCC(CC4)O)C(=O)N)C(F)(F)F)C(=O)C1)C

$$$$
