4QXO_1YE_A_401
  RCSB PDB08012023053D
Coordinates from PDB:4QXO:A:401 Model:1 without hydrogens
 21 23  0  0  0  0            999 V2000
  -16.9130   52.0850   -3.6440   O 0  0  0  0  0  0  0  0  0  0  0  0
  -18.0870   52.1730   -3.2070   C 0  0  0  0  0  0  0  0  0  0  0  0
  -19.1560   52.0690   -4.0810   C 0  0  0  0  0  0  0  0  0  0  0  0
  -18.9680   51.8800   -5.4490   C 0  0  0  0  0  0  0  0  0  0  0  0
  -20.0890   51.7570   -6.3040   C 0  0  0  0  0  0  0  0  0  0  0  0
  -21.3950   51.8290   -5.7990   C 0  0  0  0  0  0  0  0  0  0  0  0
  -22.5200   51.7110   -6.6530   C 0  0  0  0  0  0  0  0  0  0  0  0
  -21.5920   52.0360   -4.4270   C 0  0  0  0  0  0  0  0  0  0  0  0
  -22.8660   52.1160   -3.7940   C 0  0  0  0  0  0  0  0  0  0  0  0
  -20.4650   52.1770   -3.6200   C 0  0  0  0  0  0  0  0  0  0  0  0
  -20.7060   52.3390   -2.3250   O 0  0  0  0  0  0  0  0  0  0  0  0
  -19.6920   52.3880   -1.4370   C 0  0  0  0  0  0  0  0  0  0  0  0
  -18.3530   52.3190   -1.8570   C 0  0  0  0  0  0  0  0  0  0  0  0
  -17.3340   52.3720   -0.8790   C 0  0  0  0  0  0  0  0  0  0  0  0
  -17.7120   52.5190    0.4600   C 0  0  0  0  0  0  0  0  0  0  0  0
  -19.0540   52.6180    0.8410   C 0  0  0  0  0  0  0  0  0  0  0  0
  -20.0660   52.5480   -0.1150   C 0  0  0  0  0  0  0  0  0  0  0  0
  -21.4330   52.6390    0.2310   C 0  0  0  0  0  0  0  0  0  0  0  0
  -22.3680   51.4130   -0.0840   C 0  0  0  0  0  0  0  0  0  0  0  0
  -23.6000   51.6050    0.1400   O 0  0  0  0  0  0  0  0  0  0  0  0
  -21.8570   50.3260   -0.4720   O 0  0  0  0  0  0  0  0  0  0  0  0
 16 15  2  0  0  0  0
 16 17  1  0  0  0  0
 18 19  1  0  0  0  0
 18 17  1  0  0  0  0
 15 14  1  0  0  0  0
 19 21  2  0  0  0  0
 19 20  1  0  0  0  0
 17 12  2  0  0  0  0
 14 13  2  0  0  0  0
 12 13  1  0  0  0  0
 12 11  1  0  0  0  0
 13  2  1  0  0  0  0
 11 10  1  0  0  0  0
  2  1  2  0  0  0  0
  2  3  1  0  0  0  0
 10  3  2  0  0  0  0
 10  8  1  0  0  0  0
  9  8  1  0  0  0  0
  3  4  1  0  0  0  0
  8  6  2  0  0  0  0
  4  5  2  0  0  0  0
  6  5  1  0  0  0  0
  6  7  1  0  0  0  0
M  END
>  <InstanceId>
4QXO_1YE_A_401

>  <ChemCompId>
1YE

>  <PdbId>
4QXO

>  <ChainId>
A

>  <ResidueNumber>
401

>  <InsertionCode>


>  <Model>
1

>  <AltIds>


>  <MissingHeavyAtoms>
0

>  <ObservedFormula>
C17 O4

>  <Name>
(5,6-dimethyl-9-oxo-9H-xanthen-4-yl)acetic acid

>  <SystematicName>
2-(5,6-dimethyl-9-oxidanylidene-xanthen-4-yl)ethanoic acid

>  <Synonyms>


>  <Type>
NON-POLYMER

>  <Formula>
C17 H14 O4

>  <MolecularWeight>
282.291

>  <ModifiedDate>
2013-08-16

>  <Parent>


>  <OneLetterCode>


>  <SubcomponentList>


>  <AmbiguousFlag>
N

>  <InChI>
InChI=1S/C17H14O4/c1-9-6-7-13-15(20)12-5-3-4-11(8-14(18)19)17(12)21-16(13)10(9)2/h3-7H,8H2,1-2H3,(H,18,19)

>  <InChIKey>
XGOYIMQSIKSOBS-UHFFFAOYSA-N

>  <SMILES>
Cc1ccc2c(c1C)Oc3c(cccc3C2=O)CC(=O)O

$$$$
