3O4K_LTC_C_172
  RCSB PDB08012019583D
Coordinates from PDB:3O4K:C:172 Model:1 without hydrogens
 54 55  0  0  0  0            999 V2000
   18.4590   20.5470  -22.3260   C 0  0  0  0  0  0  0  0  0  0  0  0
   17.3060   21.3000  -22.8090   O 0  0  0  0  0  0  0  0  0  0  0  0
   18.7570   20.7730  -20.8190   C 0  0  0  0  0  0  0  0  0  0  0  0
   18.0680   21.7030  -18.6830   O 0  0  0  0  0  0  0  0  0  0  0  0
   17.7460   21.7110  -20.1050   C 0  0  0  0  0  0  0  0  0  0  0  0
   15.2870   22.1930  -19.9460   O 0  0  0  0  0  0  0  0  0  0  0  0
   16.2960   21.3290  -20.5090   C 0  0  0  0  0  0  0  0  0  0  0  0
   20.1410   21.1500  -20.5880   O 0  0  0  0  0  0  0  0  0  0  0  0
   16.0690   21.2370  -22.0390   C 0  0  0  0  0  0  0  0  0  0  0  0
   16.9400   18.6700  -22.4030   O 0  0  0  0  0  0  0  0  0  0  0  0
   18.3070   19.0540  -22.6210   C 0  0  0  0  0  0  0  0  0  0  0  0
   12.7010   19.9120  -26.1390   O 0  0  0  0  0  0  0  0  0  0  0  0
   13.9630   21.3660  -24.7510   O 0  0  0  0  0  0  0  0  0  0  0  0
   24.2320   18.7850  -25.4690   C 0  0  0  0  0  0  0  0  0  0  0  0
   15.0930   22.2060  -22.5120   O 0  0  0  0  0  0  0  0  0  0  0  0
   23.0770   17.8850  -25.9110   C 0  0  0  0  0  0  0  0  0  0  0  0
   10.6000   21.4630  -24.2460   O 0  0  0  0  0  0  0  0  0  0  0  0
   21.9220   17.8310  -24.8990   C 0  0  0  0  0  0  0  0  0  0  0  0
   10.3790   21.4290  -26.6080   O 0  0  0  0  0  0  0  0  0  0  0  0
   20.7180   17.0050  -25.3760   C 0  0  0  0  0  0  0  0  0  0  0  0
   20.8360   15.4830  -25.1450   C 0  0  0  0  0  0  0  0  0  0  0  0
   19.4690   14.8000  -24.9340   C 0  0  0  0  0  0  0  0  0  0  0  0
   18.7370   14.2960  -26.1980   C 0  0  0  0  0  0  0  0  0  0  0  0
   17.1980   14.3830  -26.2180   C 0  0  0  0  0  0  0  0  0  0  0  0
   16.5740   14.9930  -24.9780   C 0  0  0  0  0  0  0  0  0  0  0  0
   15.1950   15.6450  -25.0800   C 0  0  0  0  0  0  0  0  0  0  0  0
   15.2530   16.9600  -25.8720   C 0  0  0  0  0  0  0  0  0  0  0  0
   15.4690   18.2130  -25.0260   C 0  0  0  0  0  0  0  0  0  0  0  0
   16.0630   19.3480  -25.8610   C 0  0  0  0  0  0  0  0  0  0  0  0
   15.0000   20.0280  -26.7300   C 0  0  0  0  0  0  0  0  0  0  0  0
   13.7960   20.4030  -25.8750   C 0  0  0  0  0  0  0  0  0  0  0  0
   13.0000   21.4130  -23.6780   C 0  0  0  0  0  0  0  0  0  0  0  0
   13.6880   21.8860  -22.3810   C 0  0  0  0  0  0  0  0  0  0  0  0
   11.7870   22.2700  -24.0630   C 0  0  0  0  0  0  0  0  0  0  0  0
    9.8130   21.3620  -25.5040   C 0  0  0  0  0  0  0  0  0  0  0  0
    8.2980   21.1640  -25.4100   C 0  0  0  0  0  0  0  0  0  0  0  0
    7.6480   21.0560  -26.7890   C 0  0  0  0  0  0  0  0  0  0  0  0
    6.1960   21.5370  -26.8100   C 0  0  0  0  0  0  0  0  0  0  0  0
    6.0350   22.7520  -27.7350   C 0  0  0  0  0  0  0  0  0  0  0  0
    5.4000   22.4460  -29.0940   C 0  0  0  0  0  0  0  0  0  0  0  0
    6.0320   23.2380  -30.2290   C 0  0  0  0  0  0  0  0  0  0  0  0
   15.4610   20.6520  -16.3610   C 0  0  0  0  0  0  0  0  0  0  0  0
   16.2930   20.7430  -17.5290   O 0  0  0  0  0  0  0  0  0  0  0  0
   15.4700   21.9180  -15.5080   C 0  0  0  0  0  0  0  0  0  0  0  0
   14.4710   21.8190  -14.4530   N 0  0  0  0  0  0  0  0  0  0  0  0
   13.9170   23.4200  -16.6570   O 0  0  0  0  0  0  0  0  0  0  0  0
   15.3140   23.2060  -16.3430   C 0  0  0  0  0  0  0  0  0  0  0  0
   16.2530   23.2530  -17.5800   C 0  0  0  0  0  0  0  0  0  0  0  0
   17.0500   24.5100  -17.6640   N 0  0  0  0  0  0  0  0  0  0  0  0
   17.1040   21.9220  -17.6190   C 0  0  0  0  0  0  0  0  0  0  0  0
   13.9730   20.3270  -16.5120   C 0  0  0  0  0  0  0  0  0  0  0  0
   16.7210   25.8470  -17.6670   C 0  0  0  0  0  0  0  0  0  0  0  0
   15.6050   26.3590  -17.6800   O 0  0  0  0  0  0  0  0  0  0  0  0
   17.8660   26.8250  -17.4750   C 0  0  0  0  0  0  0  0  0  0  0  0
  1  2  1  0  0  0  0
  1  3  1  0  0  0  0
  1 11  1  0  0  0  0
  2  9  1  0  0  0  0
  3  5  1  0  0  0  0
  3  8  1  0  0  0  0
  4  5  1  0  0  0  0
  4 50  1  0  0  0  0
  5  7  1  0  0  0  0
  6  7  1  0  0  0  0
  7  9  1  0  0  0  0
  9 15  1  0  0  0  0
 10 11  1  0  0  0  0
 12 31  2  0  0  0  0
 13 31  1  0  0  0  0
 13 32  1  0  0  0  0
 14 16  1  0  0  0  0
 15 33  1  0  0  0  0
 16 18  1  0  0  0  0
 17 34  1  0  0  0  0
 17 35  1  0  0  0  0
 18 20  1  0  0  0  0
 19 35  2  0  0  0  0
 20 21  1  0  0  0  0
 21 22  1  0  0  0  0
 22 23  1  0  0  0  0
 23 24  1  0  0  0  0
 24 25  2  0  0  0  0
 25 26  1  0  0  0  0
 26 27  1  0  0  0  0
 27 28  1  0  0  0  0
 28 29  1  0  0  0  0
 29 30  1  0  0  0  0
 30 31  1  0  0  0  0
 32 33  1  0  0  0  0
 32 34  1  0  0  0  0
 35 36  1  0  0  0  0
 36 37  1  0  0  0  0
 37 38  1  0  0  0  0
 38 39  1  0  0  0  0
 39 40  1  0  0  0  0
 40 41  1  0  0  0  0
 42 43  1  0  0  0  0
 42 44  1  0  0  0  0
 42 51  1  0  0  0  0
 43 50  1  0  0  0  0
 44 45  1  0  0  0  0
 44 47  1  0  0  0  0
 46 47  1  0  0  0  0
 47 48  1  0  0  0  0
 48 49  1  0  0  0  0
 48 50  1  0  0  0  0
 49 52  1  0  0  0  0
 52 53  2  0  0  0  0
 52 54  1  0  0  0  0
M  END
>  <InstanceId>
3O4K_LTC_C_172

>  <ChemCompId>
LTC

>  <PdbId>
3O4K

>  <ChainId>
C

>  <ResidueNumber>
172

>  <InsertionCode>


>  <Model>
1

>  <AltIds>


>  <MissingHeavyAtoms>
0

>  <ObservedFormula>
C39 N2 O13

>  <Name>
(2S)-1-({3-O-[2-(acetylamino)-4-amino-2,4,6-trideoxy-beta-D-galactopyranosyl]-alpha-D-glucopyranosyl}oxy)-3-(heptanoyloxy)propan-2-yl (7Z)-pentadec-7-enoate

>  <SystematicName>
[(2S)-1-[(2S,3R,4S,5R,6R)-4-[(2S,3R,4S,5R,6R)-3-acetamido-5-azanyl-4-hydroxy-6-methyl-oxan-2-yl]oxy-3,5-dihydroxy-6-(hydroxymethyl)oxan-2-yl]oxy-3-heptanoyloxy-propan-2-yl] pentadec-7-enoate

>  <Synonyms>
Lipoteichoic acid

>  <Type>
NON-POLYMER

>  <Formula>
C39 H70 N2 O13

>  <MolecularWeight>
774.979

>  <ModifiedDate>
2011-06-04

>  <Parent>


>  <OneLetterCode>


>  <SubcomponentList>


>  <AmbiguousFlag>
N

>  <InChI>
InChI=1S/C39H70N2O13/c1-5-7-9-11-12-13-14-15-16-17-18-20-22-31(45)52-28(24-49-30(44)21-19-10-8-6-2)25-50-39-36(48)37(34(46)29(23-42)53-39)54-38-33(41-27(4)43)35(47)32(40)26(3)51-38/h14-15,26,28-29,32-39,42,46-48H,5-13,16-25,40H2,1-4H3,(H,41,43)/b15-14-/t26-,28-,29-,32+,33-,34-,35+,36-,37+,38+,39+/m1/s1

>  <InChIKey>
PANDRCFROUDETH-PVQRVOPISA-N

>  <SMILES>
CCCCCCCC=CCCCCCC(=O)O[C@@H](CO[C@@H]1[C@@H]([C@H]([C@@H]([C@H](O1)CO)O)O[C@H]2[C@@H]([C@H]([C@H]([C@H](O2)C)N)O)NC(=O)C)O)COC(=O)CCCCCC

$$$$
