5KA9_OTA_A_307
  RCSB PDB08022002013D
Coordinates from PDB:5KA9:A:307 Model:1 without hydrogens
 18 19  0  0  0  0            999 V2000
   31.4230  -30.5800   -0.9150   N 0  0  0  0  0  0  0  0  0  0  0  0
   31.5910  -30.3730   -2.3380   C 0  0  0  0  0  0  0  0  0  0  0  0
   32.9950  -30.0800   -2.8540   C 0  0  0  0  0  0  0  0  0  0  0  0
   34.0630  -30.3910   -1.9520   C 0  0  0  0  0  0  0  0  0  0  0  0
   33.8380  -30.9850   -0.6020   C 0  0  0  0  0  0  0  0  0  0  0  0
   32.4580  -31.3730   -0.2390   C 0  0  0  0  0  0  0  0  0  0  0  0
   33.5570  -29.4700   -4.1980   S 0  0  0  0  0  0  0  0  0  0  0  0
   35.1050  -29.4920   -3.9700   C 0  0  0  0  0  0  0  0  0  0  0  0
   35.4070  -30.0050   -2.6800   C 0  0  0  0  0  0  0  0  0  0  0  0
   36.8440  -30.1550   -2.0870   C 0  0  0  0  0  0  0  0  0  0  0  0
   37.0100  -30.3680   -0.8120   O 0  0  0  0  0  0  0  0  0  0  0  0
   37.8450  -30.0410   -2.8590   O 0  0  0  0  0  0  0  0  0  0  0  0
   36.1680  -29.0530   -4.7980   N 0  0  0  0  0  0  0  0  0  0  0  0
   36.0470  -28.5940   -6.1170   C 0  0  0  0  0  0  0  0  0  0  0  0
   37.3420  -28.1420   -6.7590   C 0  0  0  0  0  0  0  0  0  0  0  0
   38.3820  -28.8190   -6.5420   O 0  0  0  0  0  0  0  0  0  0  0  0
   37.3540  -27.0640   -7.4720   O 0  0  0  0  0  0  0  0  0  0  0  0
   34.9510  -28.5720   -6.7310   O 0  0  0  0  0  0  0  0  0  0  0  0
  1  2  1  0  0  0  0
  1  6  1  0  0  0  0
  2  3  1  0  0  0  0
  3  4  2  0  0  0  0
  3  7  1  0  0  0  0
  4  5  1  0  0  0  0
  4  9  1  0  0  0  0
  5  6  1  0  0  0  0
  7  8  1  0  0  0  0
  8  9  2  0  0  0  0
  8 13  1  0  0  0  0
  9 10  1  0  0  0  0
 10 11  1  0  0  0  0
 10 12  2  0  0  0  0
 13 14  1  0  0  0  0
 14 15  1  0  0  0  0
 14 18  2  0  0  0  0
 15 16  1  0  0  0  0
 15 17  2  0  0  0  0
M  END
>  <InstanceId>
5KA9_OTA_A_307

>  <ChemCompId>
OTA

>  <PdbId>
5KA9

>  <ChainId>
A

>  <ResidueNumber>
307

>  <InsertionCode>


>  <Model>
1

>  <AltIds>


>  <MissingHeavyAtoms>
0

>  <ObservedFormula>
C10 N2 O5 S

>  <Name>
2-(OXALYL-AMINO)-4,5,6,7-TETRAHYDRO-THIENO[2,3-C]PYRIDINE-3-CARBOXYLIC ACID

>  <SystematicName>
2-(carboxycarbonylamino)-4,5,6,7-tetrahydrothieno[5,4-c]pyridine-3-carboxylic acid

>  <Synonyms>


>  <Type>
NON-POLYMER

>  <Formula>
C10 H10 N2 O5 S

>  <MolecularWeight>
270.262

>  <ModifiedDate>
2011-06-04

>  <Parent>


>  <OneLetterCode>


>  <SubcomponentList>


>  <AmbiguousFlag>
N

>  <InChI>
InChI=1S/C10H10N2O5S/c13-7(10(16)17)12-8-6(9(14)15)4-1-2-11-3-5(4)18-8/h11H,1-3H2,(H,12,13)(H,14,15)(H,16,17)

>  <InChIKey>
ZIBMATWHOAGNTR-UHFFFAOYSA-N

>  <SMILES>
C1CNCc2c1c(c(s2)NC(=O)C(=O)O)C(=O)O

$$$$
