4DEU_NAR_A_205
  RCSB PDB08012021283D
Coordinates from PDB:4DEU:A:205 Model:1 without hydrogens
 20 22  0  0  0  0            999 V2000
   20.8430   41.9850   37.6050   C 0  0  0  0  0  0  0  0  0  0  0  0
   20.9420   42.0050   36.2720   C 0  0  0  0  0  0  0  0  0  0  0  0
   21.9860   42.6280   35.6500   C 0  0  0  0  0  0  0  0  0  0  0  0
   22.9510   43.2380   36.4080   C 0  0  0  0  0  0  0  0  0  0  0  0
   22.8850   43.2270   37.7440   C 0  0  0  0  0  0  0  0  0  0  0  0
   21.8250   42.5930   38.3440   C 0  0  0  0  0  0  0  0  0  0  0  0
   23.8440   43.7720   38.6060   C 0  0  0  0  0  0  0  0  0  0  0  0
   23.7880   43.3480   40.0740   C 0  0  0  0  0  0  0  0  0  0  0  0
   22.7970   42.1410   40.1750   C 0  0  0  0  0  0  0  0  0  0  0  0
   21.7150   42.6000   39.6610   O 0  0  0  0  0  0  0  0  0  0  0  0
   24.7880   44.4600   38.2560   O 0  0  0  0  0  0  0  0  0  0  0  0
   22.2000   41.6800   41.5160   C 0  0  0  0  0  0  0  0  0  0  0  0
   21.7220   42.6140   42.3560   C 0  0  0  0  0  0  0  0  0  0  0  0
   21.1600   42.1210   43.5310   C 0  0  0  0  0  0  0  0  0  0  0  0
   21.0040   40.7720   43.8510   C 0  0  0  0  0  0  0  0  0  0  0  0
   21.4520   39.7780   43.0220   C 0  0  0  0  0  0  0  0  0  0  0  0
   22.0310   40.1730   41.7990   C 0  0  0  0  0  0  0  0  0  0  0  0
   20.4310   40.4820   45.0250   O 0  0  0  0  0  0  0  0  0  0  0  0
   19.9810   41.3970   35.5760   O 0  0  0  0  0  0  0  0  0  0  0  0
   23.9760   43.8550   35.8400   O 0  0  0  0  0  0  0  0  0  0  0  0
  1  2  2  0  0  0  0
  1  6  1  0  0  0  0
  2  3  1  0  0  0  0
  2 19  1  0  0  0  0
  3  4  2  0  0  0  0
  4  5  1  0  0  0  0
  4 20  1  0  0  0  0
  5  6  2  0  0  0  0
  5  7  1  0  0  0  0
  6 10  1  0  0  0  0
  7  8  1  0  0  0  0
  7 11  2  0  0  0  0
  8  9  1  0  0  0  0
  9 10  1  0  0  0  0
  9 12  1  0  0  0  0
 12 13  1  0  0  0  0
 12 17  2  0  0  0  0
 13 14  2  0  0  0  0
 14 15  1  0  0  0  0
 15 16  2  0  0  0  0
 15 18  1  0  0  0  0
 16 17  1  0  0  0  0
M  END
>  <InstanceId>
4DEU_NAR_A_205

>  <ChemCompId>
NAR

>  <PdbId>
4DEU

>  <ChainId>
A

>  <ResidueNumber>
205

>  <InsertionCode>


>  <Model>
1

>  <AltIds>


>  <MissingHeavyAtoms>
0

>  <ObservedFormula>
C15 O5

>  <Name>
NARINGENIN

>  <SystematicName>
(2S)-5,7-dihydroxy-2-(4-hydroxyphenyl)chroman-4-one

>  <Synonyms>


>  <Type>
NON-POLYMER

>  <Formula>
C15 H12 O5

>  <MolecularWeight>
272.253

>  <ModifiedDate>
2011-06-04

>  <Parent>


>  <OneLetterCode>


>  <SubcomponentList>


>  <AmbiguousFlag>
N

>  <InChI>
InChI=1S/C15H12O5/c16-9-3-1-8(2-4-9)13-7-12(19)15-11(18)5-10(17)6-14(15)20-13/h1-6,13,16-18H,7H2/t13-/m0/s1

>  <InChIKey>
FTVWIRXFELQLPI-ZDUSSCGKSA-N

>  <SMILES>
c1cc(ccc1[C@@H]2CC(=O)c3c(cc(cc3O2)O)O)O

$$$$
