1DGM_ADN_A_375
  RCSB PDB08012014453D
Coordinates from PDB:1DGM:A:375 Model:1 without hydrogens
 19 21  0  0  0  0            999 V2000
    2.9270    7.7700   15.4440   O 0  0  0  0  0  0  0  0  0  0  0  0
    2.7310    9.1180   15.0240   C 0  0  0  0  0  0  0  0  0  0  0  0
    1.4510    9.2380   14.2270   C 0  0  0  0  0  0  0  0  0  0  0  0
    0.3540    8.6900   15.0050   O 0  0  0  0  0  0  0  0  0  0  0  0
    1.0380   10.6680   13.9180   C 0  0  0  0  0  0  0  0  0  0  0  0
    1.6390   11.1290   12.7120   O 0  0  0  0  0  0  0  0  0  0  0  0
   -0.4750   10.5590   13.7890   C 0  0  0  0  0  0  0  0  0  0  0  0
   -0.9030   10.1620   12.5000   O 0  0  0  0  0  0  0  0  0  0  0  0
   -0.8020    9.4980   14.8460   C 0  0  0  0  0  0  0  0  0  0  0  0
   -1.1560   10.0440   16.1600   N 0  0  0  0  0  0  0  0  0  0  0  0
   -0.7490   11.2280   16.7240   C 0  0  0  0  0  0  0  0  0  0  0  0
   -1.2400   11.4410   17.9220   N 0  0  0  0  0  0  0  0  0  0  0  0
   -2.0240   10.3220   18.1650   C 0  0  0  0  0  0  0  0  0  0  0  0
   -2.8180    9.9410   19.2640   C 0  0  0  0  0  0  0  0  0  0  0  0
   -2.9670   10.6790   20.3660   N 0  0  0  0  0  0  0  0  0  0  0  0
   -3.4660    8.7610   19.1890   N 0  0  0  0  0  0  0  0  0  0  0  0
   -3.3280    8.0260   18.0800   C 0  0  0  0  0  0  0  0  0  0  0  0
   -2.6190    8.2760   16.9830   N 0  0  0  0  0  0  0  0  0  0  0  0
   -1.9820    9.4540   17.0890   C 0  0  0  0  0  0  0  0  0  0  0  0
  1  2  1  0  0  0  0
  2  3  1  0  0  0  0
  3  4  1  0  0  0  0
  3  5  1  0  0  0  0
  4  9  1  0  0  0  0
  5  6  1  0  0  0  0
  5  7  1  0  0  0  0
  7  8  1  0  0  0  0
  7  9  1  0  0  0  0
  9 10  1  0  0  0  0
 10 11  1  0  0  0  0
 10 19  1  0  0  0  0
 11 12  2  0  0  0  0
 12 13  1  0  0  0  0
 13 14  1  0  0  0  0
 13 19  2  0  0  0  0
 14 15  1  0  0  0  0
 14 16  2  0  0  0  0
 16 17  1  0  0  0  0
 17 18  2  0  0  0  0
 18 19  1  0  0  0  0
M  END
>  <InstanceId>
1DGM_ADN_A_375

>  <ChemCompId>
ADN

>  <PdbId>
1DGM

>  <ChainId>
A

>  <ResidueNumber>
375

>  <InsertionCode>


>  <Model>
1

>  <AltIds>


>  <MissingHeavyAtoms>
0

>  <ObservedFormula>
C10 N5 O4

>  <Name>
ADENOSINE

>  <SystematicName>
(2R,3R,4S,5R)-2-(6-aminopurin-9-yl)-5-(hydroxymethyl)oxolane-3,4-diol

>  <Synonyms>


>  <Type>
NON-POLYMER

>  <Formula>
C10 H13 N5 O4

>  <MolecularWeight>
267.241

>  <ModifiedDate>
2011-06-04

>  <Parent>


>  <OneLetterCode>


>  <SubcomponentList>


>  <AmbiguousFlag>
N

>  <InChI>
InChI=1S/C10H13N5O4/c11-8-5-9(13-2-12-8)15(3-14-5)10-7(18)6(17)4(1-16)19-10/h2-4,6-7,10,16-18H,1H2,(H2,11,12,13)/t4-,6-,7-,10-/m1/s1

>  <InChIKey>
OIRDTQYFTABQOQ-KQYNXXCUSA-N

>  <SMILES>
c1nc(c2c(n1)n(cn2)[C@H]3[C@@H]([C@@H]([C@H](O3)CO)O)O)N

$$$$
