1BV9_XV6_A_638
  RCSB PDB08012014393D
Coordinates from PDB:1BV9:A:638 Model:1 without hydrogens
 54 60  0  0  0  0            999 V2000
   -8.2390   14.3320   27.7220   O 0  0  0  0  0  0  0  0  0  0  0  0
  -11.7950   18.6220   28.9080   O 0  0  0  0  0  0  0  0  0  0  0  0
  -10.2020   19.5890   26.8130   O 0  0  0  0  0  0  0  0  0  0  0  0
   -9.7430   15.5500   28.7540   N 0  0  0  0  0  0  0  0  0  0  0  0
   -8.7560   16.1960   26.6940   N 0  0  0  0  0  0  0  0  0  0  0  0
   -8.9140   15.3440   27.7130   C 0  0  0  0  0  0  0  0  0  0  0  0
   -9.5310   14.7020   29.9520   C 0  0  0  0  0  0  0  0  0  0  0  0
  -10.8910   16.4960   28.7930   C 0  0  0  0  0  0  0  0  0  0  0  0
  -10.6320   17.9660   28.5120   C 0  0  0  0  0  0  0  0  0  0  0  0
  -10.3060   18.2140   27.0590   C 0  0  0  0  0  0  0  0  0  0  0  0
   -8.9190   17.6730   26.8080   C 0  0  0  0  0  0  0  0  0  0  0  0
   -8.1110   15.6540   25.4900   C 0  0  0  0  0  0  0  0  0  0  0  0
  -12.0880   15.8710   28.0530   C 0  0  0  0  0  0  0  0  0  0  0  0
  -12.5760   14.5920   28.7010   C 0  0  0  0  0  0  0  0  0  0  0  0
  -12.1550   13.3420   28.1920   C 0  0  0  0  0  0  0  0  0  0  0  0
  -12.5770   12.1610   28.8260   C 0  0  0  0  0  0  0  0  0  0  0  0
  -13.4130   12.2410   29.9600   C 0  0  0  0  0  0  0  0  0  0  0  0
  -13.8370   13.4820   30.4660   C 0  0  0  0  0  0  0  0  0  0  0  0
  -13.4130   14.6600   29.8300   C 0  0  0  0  0  0  0  0  0  0  0  0
   -7.8460   18.2500   27.7700   C 0  0  0  0  0  0  0  0  0  0  0  0
   -6.4390   18.0640   27.2370   C 0  0  0  0  0  0  0  0  0  0  0  0
   -6.0520   18.7140   26.0330   C 0  0  0  0  0  0  0  0  0  0  0  0
   -4.7630   18.5050   25.5020   C 0  0  0  0  0  0  0  0  0  0  0  0
   -3.8660   17.6400   26.1880   C 0  0  0  0  0  0  0  0  0  0  0  0
   -4.2540   16.9970   27.3950   C 0  0  0  0  0  0  0  0  0  0  0  0
   -5.5450   17.2120   27.9170   C 0  0  0  0  0  0  0  0  0  0  0  0
   -9.4360   15.4590   31.2520   C 0  0  0  0  0  0  0  0  0  0  0  0
  -10.1580   14.9800   32.3560   C 0  0  0  0  0  0  0  0  0  0  0  0
  -10.1200   15.6920   33.5740   C 0  0  0  0  0  0  0  0  0  0  0  0
   -9.3610   16.8790   33.6870   C 0  0  0  0  0  0  0  0  0  0  0  0
   -8.6310   17.3640   32.5770   C 0  0  0  0  0  0  0  0  0  0  0  0
   -8.6650   16.6450   31.3610   C 0  0  0  0  0  0  0  0  0  0  0  0
  -10.8430   15.1710   34.7760   C 0  0  0  0  0  0  0  0  0  0  0  0
  -11.2560   15.8900   35.6740   O 0  0  0  0  0  0  0  0  0  0  0  0
  -10.9650   13.8270   34.8140   N 0  0  0  0  0  0  0  0  0  0  0  0
  -11.4430   11.8240   36.2210   N 0  0  0  0  0  0  0  0  0  0  0  0
  -11.5290   13.1350   35.9790   C 0  0  0  0  0  0  0  0  0  0  0  0
  -12.0150   11.4550   37.4190   C 0  0  0  0  0  0  0  0  0  0  0  0
  -12.3350   13.8870   37.2500   S 0  0  0  0  0  0  0  0  0  0  0  0
  -12.5850   12.4950   38.1650   C 0  0  0  0  0  0  0  0  0  0  0  0
   -8.7550   15.9530   24.1770   C 0  0  0  0  0  0  0  0  0  0  0  0
   -7.9250   16.2440   23.0960   C 0  0  0  0  0  0  0  0  0  0  0  0
   -8.4890   16.5910   21.8560   C 0  0  0  0  0  0  0  0  0  0  0  0
   -9.8870   16.6340   21.7010   C 0  0  0  0  0  0  0  0  0  0  0  0
  -10.7420   16.3210   22.7820   C 0  0  0  0  0  0  0  0  0  0  0  0
  -10.1650   15.9800   24.0230   C 0  0  0  0  0  0  0  0  0  0  0  0
   -7.6100   16.9420   20.7090   C 0  0  0  0  0  0  0  0  0  0  0  0
   -7.9370   17.7390   19.8510   O 0  0  0  0  0  0  0  0  0  0  0  0
   -6.4120   16.3330   20.6950   N 0  0  0  0  0  0  0  0  0  0  0  0
   -4.1470   16.0810   19.6590   N 0  0  0  0  0  0  0  0  0  0  0  0
   -5.4020   16.5740   19.6430   C 0  0  0  0  0  0  0  0  0  0  0  0
   -3.4240   16.4260   18.5370   C 0  0  0  0  0  0  0  0  0  0  0  0
   -5.6540   17.4750   18.2230   S 0  0  0  0  0  0  0  0  0  0  0  0
   -4.1090   17.2210   17.5870   C 0  0  0  0  0  0  0  0  0  0  0  0
  1  6  2  0  0  0  0
  2  9  1  0  0  0  0
  3 10  1  0  0  0  0
  4  6  1  0  0  0  0
  4  7  1  0  0  0  0
  4  8  1  0  0  0  0
  5  6  1  0  0  0  0
  5 11  1  0  0  0  0
  5 12  1  0  0  0  0
  7 27  1  0  0  0  0
  8  9  1  0  0  0  0
  8 13  1  0  0  0  0
  9 10  1  0  0  0  0
 10 11  1  0  0  0  0
 11 20  1  0  0  0  0
 12 41  1  0  0  0  0
 13 14  1  0  0  0  0
 14 15  2  0  0  0  0
 14 19  1  0  0  0  0
 15 16  1  0  0  0  0
 16 17  2  0  0  0  0
 17 18  1  0  0  0  0
 18 19  2  0  0  0  0
 20 21  1  0  0  0  0
 21 22  2  0  0  0  0
 21 26  1  0  0  0  0
 22 23  1  0  0  0  0
 23 24  2  0  0  0  0
 24 25  1  0  0  0  0
 25 26  2  0  0  0  0
 27 28  2  0  0  0  0
 27 32  1  0  0  0  0
 28 29  1  0  0  0  0
 29 30  2  0  0  0  0
 29 33  1  0  0  0  0
 30 31  1  0  0  0  0
 31 32  2  0  0  0  0
 33 34  2  0  0  0  0
 33 35  1  0  0  0  0
 35 37  1  0  0  0  0
 36 37  2  0  0  0  0
 36 38  1  0  0  0  0
 37 39  1  0  0  0  0
 38 40  2  0  0  0  0
 39 40  1  0  0  0  0
 41 42  2  0  0  0  0
 41 46  1  0  0  0  0
 42 43  1  0  0  0  0
 43 44  2  0  0  0  0
 43 47  1  0  0  0  0
 44 45  1  0  0  0  0
 45 46  2  0  0  0  0
 47 48  2  0  0  0  0
 47 49  1  0  0  0  0
 49 51  1  0  0  0  0
 50 51  2  0  0  0  0
 50 52  1  0  0  0  0
 51 53  1  0  0  0  0
 52 54  2  0  0  0  0
 53 54  1  0  0  0  0
M  END
>  <InstanceId>
1BV9_XV6_A_638

>  <ChemCompId>
XV6

>  <PdbId>
1BV9

>  <ChainId>
A

>  <ResidueNumber>
638

>  <InsertionCode>


>  <Model>
1

>  <AltIds>


>  <MissingHeavyAtoms>
0

>  <ObservedFormula>
C41 N6 O5 S2

>  <Name>
[4R-(4ALPHA,5ALPHA,6BETA,7BETA)]-3,3'-[[TETRAHYDRO-5,6-DIHYDROXY-2-OXO-4,7-BIS(PHENYLMETHYL)-1H-1,3-DIAZEPINE-1,3(2H)-D IYL] BIS(METHYLENE)]BIS[N-2-THIAZOLYLBENZAMIDE]

>  <SystematicName>
3-[[(4R,5S,6S,7R)-5,6-dihydroxy-2-oxo-4,7-bis(phenylmethyl)-3-[[3-(1,3-thiazol-2-ylcarbamoyl)phenyl]methyl]-1,3-diazepan-1-yl]methyl]-N-(1,3-thiazol-2-yl)benzamide

>  <Synonyms>
XV638

>  <Type>
NON-POLYMER

>  <Formula>
C41 H38 N6 O5 S2

>  <MolecularWeight>
758.908

>  <ModifiedDate>
2020-06-17

>  <Parent>


>  <OneLetterCode>


>  <SubcomponentList>


>  <AmbiguousFlag>
N

>  <InChI>
InChI=1S/C41H38N6O5S2/c48-35-33(23-27-9-3-1-4-10-27)46(25-29-13-7-15-31(21-29)37(50)44-39-42-17-19-53-39)41(52)47(34(36(35)49)24-28-11-5-2-6-12-28)26-30-14-8-16-32(22-30)38(51)45-40-43-18-20-54-40/h1-22,33-36,48-49H,23-26H2,(H,42,44,50)(H,43,45,51)/t33-,34-,35+,36+/m1/s1

>  <InChIKey>
JDALSSGOBMTZEP-NWJWHWDBSA-N

>  <SMILES>
c1ccc(cc1)C[C@@H]2[C@@H]([C@H]([C@H](N(C(=O)N2Cc3cccc(c3)C(=O)Nc4nccs4)Cc5cccc(c5)C(=O)Nc6nccs6)Cc7ccccc7)O)O

$$$$
