3LXK_MI1_A_1125
  RCSB PDB08012019443D
Coordinates from PDB:3LXK:A:1125 Model:1 without hydrogens
 23 25  0  0  0  0            999 V2000
    0.7260   15.7350    5.4100   C 0  0  0  0  0  0  0  0  0  0  0  0
    1.7900   16.8120    5.5120   C 0  0  0  0  0  0  0  0  0  0  0  0
    2.8080   15.6940    7.4290   C 0  0  0  0  0  0  0  0  0  0  0  0
    1.7000   14.6620    7.4460   C 0  0  0  0  0  0  0  0  0  0  0  0
    0.4230   15.1790    6.8080   C 0  0  0  0  0  0  0  0  0  0  0  0
    2.9870   16.2430    6.1130   N 0  0  0  0  0  0  0  0  0  0  0  0
    4.2210   16.5720    4.2380   O 0  0  0  0  0  0  0  0  0  0  0  0
    4.1440   16.1520    5.3790   C 0  0  0  0  0  0  0  0  0  0  0  0
    5.3220   15.5240    6.0770   C 0  0  0  0  0  0  0  0  0  0  0  0
    6.4300   15.3090    5.1680   C 0  0  0  0  0  0  0  0  0  0  0  0
    7.2990   15.0780    4.4380   N 0  0  0  0  0  0  0  0  0  0  0  0
   -0.2050   16.2060    7.7500   C 0  0  0  0  0  0  0  0  0  0  0  0
   -0.5650   16.2350    4.9240   N 0  0  0  0  0  0  0  0  0  0  0  0
   -0.7470   17.6270    4.6020   C 0  0  0  0  0  0  0  0  0  0  0  0
   -1.3940   15.3750    4.1710   C 0  0  0  0  0  0  0  0  0  0  0  0
   -1.2690   13.9880    4.0410   C 0  0  0  0  0  0  0  0  0  0  0  0
   -0.3750   12.9580    4.4740   C 0  0  0  0  0  0  0  0  0  0  0  0
   -0.8250   11.7580    3.9870   C 0  0  0  0  0  0  0  0  0  0  0  0
   -1.9660   12.0070    3.2910   N 0  0  0  0  0  0  0  0  0  0  0  0
   -2.2400   13.3380    3.3070   C 0  0  0  0  0  0  0  0  0  0  0  0
   -3.2950   13.8650    2.6890   N 0  0  0  0  0  0  0  0  0  0  0  0
   -3.2980   15.1830    2.8830   C 0  0  0  0  0  0  0  0  0  0  0  0
   -2.4480   15.9530    3.5690   N 0  0  0  0  0  0  0  0  0  0  0  0
  2  1  1  0  0  0  0
  1  5  1  0  0  0  0
  1 13  1  0  0  0  0
  6  2  1  0  0  0  0
  6  3  1  0  0  0  0
  3  4  1  0  0  0  0
  4  5  1  0  0  0  0
 12  5  1  0  0  0  0
  8  6  1  0  0  0  0
  7  8  2  0  0  0  0
  9  8  1  0  0  0  0
 10  9  1  0  0  0  0
 11 10  3  0  0  0  0
 14 13  1  0  0  0  0
 13 15  1  0  0  0  0
 15 23  2  0  0  0  0
 15 16  1  0  0  0  0
 16 17  1  0  0  0  0
 16 20  2  0  0  0  0
 17 18  2  0  0  0  0
 18 19  1  0  0  0  0
 20 19  1  0  0  0  0
 20 21  1  0  0  0  0
 22 21  2  0  0  0  0
 23 22  1  0  0  0  0
M  END
>  <InstanceId>
3LXK_MI1_A_1125

>  <ChemCompId>
MI1

>  <PdbId>
3LXK

>  <ChainId>
A

>  <ResidueNumber>
1125

>  <InsertionCode>


>  <Model>
1

>  <AltIds>


>  <MissingHeavyAtoms>
0

>  <ObservedFormula>
C16 N6 O

>  <Name>
3-{(3R,4R)-4-methyl-3-[methyl(7H-pyrrolo[2,3-d]pyrimidin-4-yl)amino]piperidin-1-yl}-3-oxopropanenitrile

>  <SystematicName>
3-[(3R,4R)-4-methyl-3-(methyl-(7H-pyrrolo[3,2-e]pyrimidin-4-yl)amino)piperidin-1-yl]-3-oxo-propanenitrile

>  <Synonyms>
CP-690,550

>  <Type>
NON-POLYMER

>  <Formula>
C16 H20 N6 O

>  <MolecularWeight>
312.37

>  <ModifiedDate>
2011-06-04

>  <Parent>


>  <OneLetterCode>


>  <SubcomponentList>


>  <AmbiguousFlag>
N

>  <InChI>
InChI=1S/C16H20N6O/c1-11-5-8-22(14(23)3-6-17)9-13(11)21(2)16-12-4-7-18-15(12)19-10-20-16/h4,7,10-11,13H,3,5,8-9H2,1-2H3,(H,18,19,20)/t11-,13+/m1/s1

>  <InChIKey>
UJLAWZDWDVHWOW-YPMHNXCESA-N

>  <SMILES>
C[C@@H]1CCN(C[C@@H]1N(C)c2c3cc[nH]c3ncn2)C(=O)CC#N

$$$$
