4NON_GDP_A_301
  RCSB PDB08012022393D
Coordinates from PDB:4NON:A:301 Model:1 without hydrogens
 28 30  0  0  0  0            999 V2000
   -0.8970  -37.3200   16.1450   P 0  0  0  0  0  0  0  0  0  0  0  0
   -1.5510  -36.9380   14.8400   O 0  0  0  0  0  0  0  0  0  0  0  0
   -0.8720  -36.2210   17.1770   O 0  0  0  0  0  0  0  0  0  0  0  0
    0.4170  -38.0580   16.0260   O 0  0  0  0  0  0  0  0  0  0  0  0
   -1.8870  -38.3910   16.8340   O 0  0  0  0  0  0  0  0  0  0  0  0
   -2.9210  -39.3340   16.0360   P 0  0  0  0  0  0  0  0  0  0  0  0
   -4.1610  -38.5370   15.7390   O 0  0  0  0  0  0  0  0  0  0  0  0
   -2.1990  -40.0470   14.9150   O 0  0  0  0  0  0  0  0  0  0  0  0
   -3.2640  -40.4090   17.1770   O 0  0  0  0  0  0  0  0  0  0  0  0
   -2.2110  -40.9500   17.9720   C 0  0  0  0  0  0  0  0  0  0  0  0
   -2.6490  -42.2440   18.6450   C 0  0  0  0  0  0  0  0  0  0  0  0
   -3.4660  -41.9290   19.7720   O 0  0  0  0  0  0  0  0  0  0  0  0
   -3.4660  -43.1520   17.7350   C 0  0  0  0  0  0  0  0  0  0  0  0
   -3.0070  -44.5060   17.8530   O 0  0  0  0  0  0  0  0  0  0  0  0
   -4.8970  -43.0200   18.2180   C 0  0  0  0  0  0  0  0  0  0  0  0
   -5.5700  -44.2800   18.1960   O 0  0  0  0  0  0  0  0  0  0  0  0
   -4.7730  -42.4980   19.6420   C 0  0  0  0  0  0  0  0  0  0  0  0
   -5.7530  -41.4460   20.0070   N 0  0  0  0  0  0  0  0  0  0  0  0
   -5.9570  -40.2730   19.3760   C 0  0  0  0  0  0  0  0  0  0  0  0
   -6.9140  -39.5440   20.0090   N 0  0  0  0  0  0  0  0  0  0  0  0
   -7.3270  -40.2520   21.0750   C 0  0  0  0  0  0  0  0  0  0  0  0
   -8.3090  -40.0750   22.1720   C 0  0  0  0  0  0  0  0  0  0  0  0
   -9.0040  -39.0430   22.2490   O 0  0  0  0  0  0  0  0  0  0  0  0
   -8.4330  -41.0530   23.0820   N 0  0  0  0  0  0  0  0  0  0  0  0
   -7.6930  -42.1830   23.0240   C 0  0  0  0  0  0  0  0  0  0  0  0
   -7.8640  -43.1360   23.9730   N 0  0  0  0  0  0  0  0  0  0  0  0
   -6.7750  -42.4090   22.0490   N 0  0  0  0  0  0  0  0  0  0  0  0
   -6.5530  -41.5000   21.0690   C 0  0  0  0  0  0  0  0  0  0  0  0
  1  2  2  0  0  0  0
  1  3  1  0  0  0  0
  1  4  1  0  0  0  0
  1  5  1  0  0  0  0
  5  6  1  0  0  0  0
  6  7  2  0  0  0  0
  6  8  1  0  0  0  0
  6  9  1  0  0  0  0
  9 10  1  0  0  0  0
 10 11  1  0  0  0  0
 11 12  1  0  0  0  0
 11 13  1  0  0  0  0
 12 17  1  0  0  0  0
 13 14  1  0  0  0  0
 13 15  1  0  0  0  0
 15 16  1  0  0  0  0
 15 17  1  0  0  0  0
 17 18  1  0  0  0  0
 18 19  1  0  0  0  0
 18 28  1  0  0  0  0
 19 20  2  0  0  0  0
 20 21  1  0  0  0  0
 21 22  1  0  0  0  0
 21 28  2  0  0  0  0
 22 23  2  0  0  0  0
 22 24  1  0  0  0  0
 24 25  1  0  0  0  0
 25 26  1  0  0  0  0
 25 27  2  0  0  0  0
 27 28  1  0  0  0  0
M  END
>  <InstanceId>
4NON_GDP_A_301

>  <ChemCompId>
GDP

>  <PdbId>
4NON

>  <ChainId>
A

>  <ResidueNumber>
301

>  <InsertionCode>


>  <Model>
1

>  <AltIds>


>  <MissingHeavyAtoms>
0

>  <ObservedFormula>
C10 N5 O11 P2

>  <Name>
GUANOSINE-5'-DIPHOSPHATE

>  <SystematicName>
[(2R,3S,4R,5R)-5-(2-azanyl-6-oxidanylidene-1H-purin-9-yl)-3,4-bis(oxidanyl)oxolan-2-yl]methyl phosphono hydrogen phosphate

>  <Synonyms>


>  <Type>
RNA LINKING

>  <Formula>
C10 H15 N5 O11 P2

>  <MolecularWeight>
443.201

>  <ModifiedDate>
2014-05-12

>  <Parent>
G

>  <OneLetterCode>
G

>  <SubcomponentList>


>  <AmbiguousFlag>
N

>  <InChI>
InChI=1S/C10H15N5O11P2/c11-10-13-7-4(8(18)14-10)12-2-15(7)9-6(17)5(16)3(25-9)1-24-28(22,23)26-27(19,20)21/h2-3,5-6,9,16-17H,1H2,(H,22,23)(H2,19,20,21)(H3,11,13,14,18)/t3-,5-,6-,9-/m1/s1

>  <InChIKey>
QGWNDRXFNXRZMB-UUOKFMHZSA-N

>  <SMILES>
c1nc2c(n1[C@H]3[C@@H]([C@@H]([C@H](O3)CO[P@](=O)(O)OP(=O)(O)O)O)O)N=C(NC2=O)N

$$$$
