6FE1_V14_A_302
  RCSB PDB08022004383D
Coordinates from PDB:6FE1:A:302 Model:1 without hydrogens
 28 29  0  0  0  0            999 V2000
   11.7100  -25.7520  -55.6830   F 0  0  0  0  0  0  0  0  0  0  0  0
   11.2210  -26.2820  -56.8000   C 0  0  0  0  0  0  0  0  0  0  0  0
    9.8130  -26.7280  -56.8110   C 0  0  0  0  0  0  0  0  0  0  0  0
    8.7780  -26.4080  -55.5870   S 0  0  0  0  0  0  0  0  0  0  0  0
    8.9670  -27.2010  -54.4020   O 0  0  0  0  0  0  0  0  0  0  0  0
    7.2800  -26.5260  -56.1820   N 0  0  0  0  0  0  0  0  0  0  0  0
    8.9550  -24.9930  -55.3500   O 0  0  0  0  0  0  0  0  0  0  0  0
    9.3460  -27.3400  -58.0710   C 0  0  0  0  0  0  0  0  0  0  0  0
    8.1260  -27.7760  -58.2240   F 0  0  0  0  0  0  0  0  0  0  0  0
   10.1720  -27.5110  -59.2540   C 0  0  0  0  0  0  0  0  0  0  0  0
    9.6450  -28.0530  -60.3670   F 0  0  0  0  0  0  0  0  0  0  0  0
   12.0860  -26.4400  -58.0210   C 0  0  0  0  0  0  0  0  0  0  0  0
   11.5590  -27.0890  -59.2420   C 0  0  0  0  0  0  0  0  0  0  0  0
   12.3940  -27.2640  -60.6330   S 0  0  0  0  0  0  0  0  0  0  0  0
   13.6530  -26.5840  -60.5460   O 0  0  0  0  0  0  0  0  0  0  0  0
   11.5980  -26.6160  -61.6300   O 0  0  0  0  0  0  0  0  0  0  0  0
   12.6010  -28.8780  -61.0410   C 0  0  0  0  0  0  0  0  0  0  0  0
   13.6200  -29.5700  -60.1530   C 0  0  0  0  0  0  0  0  0  0  0  0
   12.9580  -29.9140  -58.9490   O 0  0  0  0  0  0  0  0  0  0  0  0
   13.4020  -26.1890  -58.1310   N 0  0  0  0  0  0  0  0  0  0  0  0
   14.4680  -26.2890  -57.1730   C 0  0  0  0  0  0  0  0  0  0  0  0
   14.2620  -27.4870  -56.2340   C 0  0  0  0  0  0  0  0  0  0  0  0
   15.5580  -28.1430  -55.7560   C 0  0  0  0  0  0  0  0  0  0  0  0
   16.3000  -27.4930  -54.5850   C 0  0  0  0  0  0  0  0  0  0  0  0
   15.7320  -26.1930  -53.9880   C 0  0  0  0  0  0  0  0  0  0  0  0
   16.2790  -24.9170  -54.6180   C 0  0  0  0  0  0  0  0  0  0  0  0
   16.2100  -24.8600  -56.1270   C 0  0  0  0  0  0  0  0  0  0  0  0
   14.7490  -24.9300  -56.5650   C 0  0  0  0  0  0  0  0  0  0  0  0
 18 19  1  0  0  0  0
 18 17  1  0  0  0  0
 17 14  1  0  0  0  0
 16 14  2  0  0  0  0
 28 27  1  0  0  0  0
 28 21  1  0  0  0  0
 27 26  1  0  0  0  0
 20 21  1  0  0  0  0
 20 12  1  0  0  0  0
 26 25  1  0  0  0  0
 14 13  1  0  0  0  0
 14 15  2  0  0  0  0
 21 22  1  0  0  0  0
 12 13  2  0  0  0  0
 12  2  1  0  0  0  0
 13 10  1  0  0  0  0
  1  2  1  0  0  0  0
 25 24  1  0  0  0  0
  2  3  2  0  0  0  0
 24 23  1  0  0  0  0
 22 23  1  0  0  0  0
 10 11  1  0  0  0  0
 10  8  2  0  0  0  0
  3  8  1  0  0  0  0
  3  4  1  0  0  0  0
  8  9  1  0  0  0  0
  6  4  1  0  0  0  0
  4  5  2  0  0  0  0
  4  7  2  0  0  0  0
M  END
>  <InstanceId>
6FE1_V14_A_302

>  <ChemCompId>
V14

>  <PdbId>
6FE1

>  <ChainId>
A

>  <ResidueNumber>
302

>  <InsertionCode>


>  <Model>
1

>  <AltIds>


>  <MissingHeavyAtoms>
0

>  <ObservedFormula>
C16 N2 O5 S2 F3

>  <Name>
3-(cyclooctylamino)-2,5,6-trifluoro-4-[(2-hydroxyethyl)sulfonyl]benzenesulfonamide

>  <SystematicName>
3-(cyclooctylamino)-2,5,6-tris(fluoranyl)-4-(2-hydroxyethylsulfonyl)benzenesulfonamide

>  <Synonyms>


>  <Type>
NON-POLYMER

>  <Formula>
C16 H23 F3 N2 O5 S2

>  <MolecularWeight>
444.489

>  <ModifiedDate>
2015-01-23

>  <Parent>


>  <OneLetterCode>


>  <SubcomponentList>


>  <AmbiguousFlag>
N

>  <InChI>
InChI=1S/C16H23F3N2O5S2/c17-11-12(18)16(27(23,24)9-8-22)14(13(19)15(11)28(20,25)26)21-10-6-4-2-1-3-5-7-10/h10,21-22H,1-9H2,(H2,20,25,26)

>  <InChIKey>
HFJJAVOBUVMVFQ-UHFFFAOYSA-N

>  <SMILES>
C1CCCC(CCC1)Nc2c(c(c(c(c2S(=O)(=O)CCO)F)F)S(=O)(=O)N)F

$$$$
