5VD0_8X7_A_401
  RCSB PDB08022003203D
Coordinates from PDB:5VD0:A:401 Model:1 without hydrogens
 37 41  0  0  0  0            999 V2000
   -9.1730    9.2520    3.4240   C 0  0  0  0  0  0  0  0  0  0  0  0
   -9.4080    8.0460    2.5870   N 0  0  0  0  0  0  0  0  0  0  0  0
  -10.8420    7.8860    2.2150   C 0  0  0  0  0  0  0  0  0  0  0  0
  -11.0010    6.6900    1.2460   C 0  0  0  0  0  0  0  0  0  0  0  0
  -10.4860    5.4740    1.8590   N 0  0  0  0  0  0  0  0  0  0  0  0
   -9.0720    5.5960    2.1960   C 0  0  0  0  0  0  0  0  0  0  0  0
   -8.8420    6.7890    3.1670   C 0  0  0  0  0  0  0  0  0  0  0  0
  -11.2120    4.2720    1.8980   C 0  0  0  0  0  0  0  0  0  0  0  0
  -12.6250    4.2260    1.7400   C 0  0  0  0  0  0  0  0  0  0  0  0
  -13.3420    3.0240    1.7820   C 0  0  0  0  0  0  0  0  0  0  0  0
  -12.6880    1.7920    1.9860   C 0  0  0  0  0  0  0  0  0  0  0  0
  -13.2810    0.5600    2.0490   N 0  0  0  0  0  0  0  0  0  0  0  0
  -14.5970    0.2680    2.2370   C 0  0  0  0  0  0  0  0  0  0  0  0
  -14.9630   -1.0390    2.2490   N 0  0  0  0  0  0  0  0  0  0  0  0
  -16.2500   -1.4420    2.4260   C 0  0  0  0  0  0  0  0  0  0  0  0
  -17.2250   -0.4520    2.6040   C 0  0  0  0  0  0  0  0  0  0  0  0
  -18.6260   -0.4730    2.8030   C 0  0  0  0  0  0  0  0  0  0  0  0
  -19.4550   -1.4430    2.8910   O 0  0  0  0  0  0  0  0  0  0  0  0
  -19.0030    0.8350    2.8980   N 0  0  0  0  0  0  0  0  0  0  0  0
  -20.3780    1.2140    3.1300   C 0  0  0  0  0  0  0  0  0  0  0  0
  -20.7070    0.7980    4.4800   C 0  0  0  0  0  0  0  0  0  0  0  0
  -21.7510    0.0170    4.7820   C 0  0  0  0  0  0  0  0  0  0  0  0
  -17.9480    1.6350    2.7920   N 0  0  0  0  0  0  0  0  0  0  0  0
  -16.8570    0.8710    2.5980   C 0  0  0  0  0  0  0  0  0  0  0  0
  -15.5650    1.2070    2.4150   N 0  0  0  0  0  0  0  0  0  0  0  0
  -17.8740    3.0010    2.7880   C 0  0  0  0  0  0  0  0  0  0  0  0
  -18.9000    3.6540    2.2100   N 0  0  0  0  0  0  0  0  0  0  0  0
  -19.0120    4.9970    2.0740   C 0  0  0  0  0  0  0  0  0  0  0  0
  -17.9610    5.7960    2.5710   C 0  0  0  0  0  0  0  0  0  0  0  0
  -16.8530    5.1730    3.1700   C 0  0  0  0  0  0  0  0  0  0  0  0
  -16.7930    3.7710    3.2730   C 0  0  0  0  0  0  0  0  0  0  0  0
  -20.2380    5.5500    1.4320   C 0  0  0  0  0  0  0  0  0  0  0  0
  -21.4320    5.5650    2.4270   C 0  0  0  0  0  0  0  0  0  0  0  0
  -20.6110    4.6780    0.1990   C 0  0  0  0  0  0  0  0  0  0  0  0
  -20.0180    6.8910    0.9800   O 0  0  0  0  0  0  0  0  0  0  0  0
  -11.2930    1.8130    2.1470   C 0  0  0  0  0  0  0  0  0  0  0  0
  -10.5770    3.0190    2.1030   C 0  0  0  0  0  0  0  0  0  0  0  0
  1  2  1  0  0  0  0
  2  3  1  0  0  0  0
  2  7  1  0  0  0  0
  3  4  1  0  0  0  0
  7  6  1  0  0  0  0
  4  5  1  0  0  0  0
  6  5  1  0  0  0  0
  5  8  1  0  0  0  0
  8 37  2  0  0  0  0
  8  9  1  0  0  0  0
 37 36  1  0  0  0  0
  9 10  2  0  0  0  0
 36 11  2  0  0  0  0
 10 11  1  0  0  0  0
 11 12  1  0  0  0  0
 12 13  1  0  0  0  0
 30 29  2  0  0  0  0
 30 31  1  0  0  0  0
 29 28  1  0  0  0  0
 33 32  1  0  0  0  0
 13 25  2  0  0  0  0
 13 14  1  0  0  0  0
 31 26  2  0  0  0  0
 25 24  1  0  0  0  0
 28 32  1  0  0  0  0
 28 27  2  0  0  0  0
 35 32  1  0  0  0  0
 32 34  1  0  0  0  0
 14 15  2  0  0  0  0
 26 27  1  0  0  0  0
 26 23  1  0  0  0  0
 24 23  1  0  0  0  0
 24 16  2  0  0  0  0
 23 19  1  0  0  0  0
 15 16  1  0  0  0  0
 16 17  1  0  0  0  0
 19 17  1  0  0  0  0
 19 20  1  0  0  0  0
 17 18  2  0  0  0  0
 20 21  1  0  0  0  0
 21 22  2  0  0  0  0
M  END
>  <InstanceId>
5VD0_8X7_A_401

>  <ChemCompId>
8X7

>  <PdbId>
5VD0

>  <ChainId>
A

>  <ResidueNumber>
401

>  <InsertionCode>


>  <Model>
1

>  <AltIds>


>  <MissingHeavyAtoms>
0

>  <ObservedFormula>
C27 N8 O2

>  <Name>
1-[6-(2-hydroxypropan-2-yl)pyridin-2-yl]-6-{[4-(4-methylpiperazin-1-yl)phenyl]amino}-2-(prop-2-en-1-yl)-1,2-dihydro-3H-pyrazolo[3,4-d]pyrimidin-3-one

>  <SystematicName>
6-[[4-(4-methylpiperazin-1-yl)phenyl]amino]-1-[6-(2-oxidanylpropan-2-yl)pyridin-2-yl]-2-prop-2-enyl-pyrazolo[3,4-d]pyrimidin-3-one

>  <Synonyms>


>  <Type>
NON-POLYMER

>  <Formula>
C27 H32 N8 O2

>  <MolecularWeight>
500.595

>  <ModifiedDate>
2017-08-18

>  <Parent>


>  <OneLetterCode>


>  <SubcomponentList>


>  <AmbiguousFlag>
N

>  <InChI>
InChI=1S/C27H32N8O2/c1-5-13-34-25(36)21-18-28-26(29-19-9-11-20(12-10-19)33-16-14-32(4)15-17-33)31-24(21)35(34)23-8-6-7-22(30-23)27(2,3)37/h5-12,18,37H,1,13-17H2,2-4H3,(H,28,29,31)

>  <InChIKey>
BKWJAKQVGHWELA-UHFFFAOYSA-N

>  <SMILES>
CC(C)(c1cccc(n1)N2c3c(cnc(n3)Nc4ccc(cc4)N5CCN(CC5)C)C(=O)N2CC=C)O

$$$$
