5EEK_TSN_A_2004
  RCSB PDB08022001133D
Coordinates from PDB:5EEK:A:2004 Model:1 without hydrogens
 22 22  0  0  0  0            999 V2000
   -9.0830   25.2290   -3.8200   O 0  0  0  0  0  0  0  0  0  0  0  0
   -7.0580   25.4010   -5.7880   O 0  0  0  0  0  0  0  0  0  0  0  0
    0.0180   26.4510   -4.8850   O 0  0  0  0  0  0  0  0  0  0  0  0
   -8.1250   26.2210   -3.9840   N 0  0  0  0  0  0  0  0  0  0  0  0
    1.5440   30.0120   -9.9050   N 0  0  0  0  0  0  0  0  0  0  0  0
    0.1460   28.2360   -6.4360   C 0  0  0  0  0  0  0  0  0  0  0  0
    1.0520   27.5640   -7.2450   C 0  0  0  0  0  0  0  0  0  0  0  0
    1.5100   28.1570   -8.4120   C 0  0  0  0  0  0  0  0  0  0  0  0
    1.0780   29.4310   -8.7660   C 0  0  0  0  0  0  0  0  0  0  0  0
    0.1770   30.1090   -7.9490   C 0  0  0  0  0  0  0  0  0  0  0  0
   -0.2900   29.5150   -6.7820   C 0  0  0  0  0  0  0  0  0  0  0  0
   -0.3490   27.5840   -5.1810   C 0  0  0  0  0  0  0  0  0  0  0  0
   -1.3440   28.3140   -4.3250   C 0  0  0  0  0  0  0  0  0  0  0  0
   -2.6460   27.5830   -4.5530   C 0  0  0  0  0  0  0  0  0  0  0  0
   -3.8820   28.1030   -4.5030   C 0  0  0  0  0  0  0  0  0  0  0  0
   -4.9990   27.1600   -4.7140   C 0  0  0  0  0  0  0  0  0  0  0  0
   -6.2980   27.4540   -4.8130   C 0  0  0  0  0  0  0  0  0  0  0  0
   -7.1900   26.2700   -4.9370   C 0  0  0  0  0  0  0  0  0  0  0  0
   -0.9480   28.2200   -2.8510   C 0  0  0  0  0  0  0  0  0  0  0  0
   -4.1380   29.5490   -4.1480   C 0  0  0  0  0  0  0  0  0  0  0  0
    1.1160   31.3510  -10.2720   C 0  0  0  0  0  0  0  0  0  0  0  0
    2.4890   29.2990  -10.7550   C 0  0  0  0  0  0  0  0  0  0  0  0
  1  4  1  0  0  0  0
  2 18  2  0  0  0  0
  3 12  2  0  0  0  0
  4 18  1  0  0  0  0
  5  9  1  0  0  0  0
  5 21  1  0  0  0  0
  5 22  1  0  0  0  0
  6  7  2  0  0  0  0
  6 11  1  0  0  0  0
  6 12  1  0  0  0  0
  7  8  1  0  0  0  0
  8  9  2  0  0  0  0
  9 10  1  0  0  0  0
 10 11  2  0  0  0  0
 12 13  1  0  0  0  0
 13 14  1  0  0  0  0
 13 19  1  0  0  0  0
 14 15  2  0  0  0  0
 15 16  1  0  0  0  0
 15 20  1  0  0  0  0
 16 17  2  0  0  0  0
 17 18  1  0  0  0  0
M  END
>  <InstanceId>
5EEK_TSN_A_2004

>  <ChemCompId>
TSN

>  <PdbId>
5EEK

>  <ChainId>
A

>  <ResidueNumber>
2004

>  <InsertionCode>


>  <Model>
1

>  <AltIds>


>  <MissingHeavyAtoms>
0

>  <ObservedFormula>
C17 N2 O3

>  <Name>
TRICHOSTATIN A

>  <SystematicName>
(2E,4E,6R)-7-(4-dimethylaminophenyl)-N-hydroxy-4,6-dimethyl-7-oxo-hepta-2,4-dienamide

>  <Synonyms>
7-[4-(DIMETHYLAMINO)PHENYL]-N-HYDROXY-4,6-DIMETHYL-7-OXO-2,4-HEPTADIENAMIDE

>  <Type>
NON-POLYMER

>  <Formula>
C17 H22 N2 O3

>  <MolecularWeight>
302.368

>  <ModifiedDate>
2011-06-04

>  <Parent>


>  <OneLetterCode>


>  <SubcomponentList>


>  <AmbiguousFlag>
N

>  <InChI>
InChI=1S/C17H22N2O3/c1-12(5-10-16(20)18-22)11-13(2)17(21)14-6-8-15(9-7-14)19(3)4/h5-11,13,22H,1-4H3,(H,18,20)/b10-5+,12-11+/t13-/m1/s1

>  <InChIKey>
RTKIYFITIVXBLE-QEQCGCAPSA-N

>  <SMILES>
C[C@H](\C=C(/C)\C=C\C(=O)NO)C(=O)c1ccc(cc1)N(C)C

$$$$
