4BF6_X0Q_A_1263
  RCSB PDB08012021133D
Coordinates from PDB:4BF6:A:1263 Model:1 without hydrogens
 22 24  0  0  0  0            999 V2000
   -7.2930    1.0830   16.6780   O 0  0  0  0  0  0  0  0  0  0  0  0
   -5.8240    0.9810   16.7140   S 0  0  0  0  0  0  0  0  0  0  0  0
   -5.3670    1.0880   18.0810   O 0  0  0  0  0  0  0  0  0  0  0  0
   -5.3660   -0.4110   16.1120   N 0  0  0  0  0  0  0  0  0  0  0  0
   -5.1520    2.1870   15.6740   C 0  0  0  0  0  0  0  0  0  0  0  0
   -6.1350    3.4490   15.0440   S 0  0  0  0  0  0  0  0  0  0  0  0
   -4.8120    4.2460   14.2850   C 0  0  0  0  0  0  0  0  0  0  0  0
   -3.6290    3.5720   14.5050   C 0  0  0  0  0  0  0  0  0  0  0  0
   -3.8310    2.4610   15.3720   C 0  0  0  0  0  0  0  0  0  0  0  0
   -5.0730    5.4470   13.4290   C 0  0  0  0  0  0  0  0  0  0  0  0
   -4.1390    6.2530   12.8210   C 0  0  0  0  0  0  0  0  0  0  0  0
   -4.9810    7.1210   12.2010   N 0  0  0  0  0  0  0  0  0  0  0  0
   -6.3660    6.8580   12.3320   N 0  0  0  0  0  0  0  0  0  0  0  0
   -6.3870    5.7590   13.1540   N 0  0  0  0  0  0  0  0  0  0  0  0
   -4.5670    8.1700   11.4510   C 0  0  0  0  0  0  0  0  0  0  0  0
   -3.3160    8.2230   10.7940   C 0  0  0  0  0  0  0  0  0  0  0  0
   -2.9010    9.3520   10.0390   C 0  0  0  0  0  0  0  0  0  0  0  0
   -3.7370   10.4470    9.8950   C 0  0  0  0  0  0  0  0  0  0  0  0
   -4.9950   10.4150   10.5190   C 0  0  0  0  0  0  0  0  0  0  0  0
   -5.3910    9.2980   11.2890   C 0  0  0  0  0  0  0  0  0  0  0  0
   -5.7720   11.4470   10.4530   C 0  0  0  0  0  0  0  0  0  0  0  0
   -6.4590   12.3850   10.4280   N 0  0  0  0  0  0  0  0  0  0  0  0
  1  2  2  0  0  0  0
  2  3  2  0  0  0  0
  2  4  1  0  0  0  0
  2  5  1  0  0  0  0
  5  6  1  0  0  0  0
  5  9  2  0  0  0  0
  6  7  1  0  0  0  0
  7  8  2  0  0  0  0
  7 10  1  0  0  0  0
  8  9  1  0  0  0  0
 10 11  2  0  0  0  0
 10 14  1  0  0  0  0
 11 12  1  0  0  0  0
 12 13  1  0  0  0  0
 12 15  1  0  0  0  0
 13 14  2  0  0  0  0
 15 16  1  0  0  0  0
 15 20  2  0  0  0  0
 16 17  2  0  0  0  0
 17 18  1  0  0  0  0
 18 19  2  0  0  0  0
 19 20  1  0  0  0  0
 19 21  1  0  0  0  0
 21 22  3  0  0  0  0
M  END
>  <InstanceId>
4BF6_X0Q_A_1263

>  <ChemCompId>
X0Q

>  <PdbId>
4BF6

>  <ChainId>
A

>  <ResidueNumber>
1263

>  <InsertionCode>


>  <Model>
1

>  <AltIds>


>  <MissingHeavyAtoms>
0

>  <ObservedFormula>
C13 N5 O2 S2

>  <Name>
5-[1-(3-cyanophenyl)-1,2,3-triazol-4-yl]thiophene-2-sulfonamide

>  <SystematicName>
5-[1-(3-cyanophenyl)-1,2,3-triazol-4-yl]thiophene-2-sulfonamide

>  <Synonyms>


>  <Type>
non-polymer

>  <Formula>
C13 H9 N5 O2 S2

>  <MolecularWeight>
331.373

>  <ModifiedDate>
2014-09-05

>  <Parent>


>  <OneLetterCode>


>  <SubcomponentList>


>  <AmbiguousFlag>
N

>  <InChI>
InChI=1S/C13H9N5O2S2/c14-7-9-2-1-3-10(6-9)18-8-11(16-17-18)12-4-5-13(21-12)22(15,19)20/h1-6,8H,(H2,15,19,20)

>  <InChIKey>
SUOSUWXLPRQCMG-UHFFFAOYSA-N

>  <SMILES>
c1cc(cc(c1)n2cc(nn2)c3ccc(s3)S(=O)(=O)N)C#N

$$$$
