5U12_5RU_A_301
  RCSB PDB08022003093D
Coordinates from PDB:5U12:A:301 Model:1 without hydrogens
 20 22  0  0  0  0            999 V2000
   -2.3420  -12.1610   71.8530   C 0  0  0  0  0  0  0  0  0  0  0  0
   -1.1080  -11.9920   72.4480   C 0  0  0  0  0  0  0  0  0  0  0  0
   -2.6280  -11.5000   70.6760   C 0  0  0  0  0  0  0  0  0  0  0  0
   -0.1610  -11.1630   71.8740   C 0  0  0  0  0  0  0  0  0  0  0  0
   -1.6860  -10.6650   70.1070   C 0  0  0  0  0  0  0  0  0  0  0  0
   -3.4510   -5.6780   68.7800   C 0  0  0  0  0  0  0  0  0  0  0  0
   -0.4480  -10.4990   70.7030   C 0  0  0  0  0  0  0  0  0  0  0  0
   -3.9500   -5.7870   67.4960   C 0  0  0  0  0  0  0  0  0  0  0  0
   -3.2620   -4.4180   69.3140   C 0  0  0  0  0  0  0  0  0  0  0  0
   -4.0500   -3.5150   67.3170   C 0  0  0  0  0  0  0  0  0  0  0  0
   -3.6510   -7.7800   68.1770   C 0  0  0  0  0  0  0  0  0  0  0  0
   -1.9330   -9.9370   68.8450   C 0  0  0  0  0  0  0  0  0  0  0  0
   -4.2610   -4.7140   66.7390   N 0  0  0  0  0  0  0  0  0  0  0  0
   -4.0760   -7.1040   67.1300   N 0  0  0  0  0  0  0  0  0  0  0  0
   -3.5680   -3.3400   68.5740   N 0  0  0  0  0  0  0  0  0  0  0  0
   -3.2590   -6.9730   69.2080   N 0  0  0  0  0  0  0  0  0  0  0  0
   -4.3450   -2.3520   66.5520   N 0  0  0  0  0  0  0  0  0  0  0  0
   -2.7580   -4.1900   70.5720   O 0  0  0  0  0  0  0  0  0  0  0  0
    0.4970   -9.6920   70.1600   F 0  0  0  0  0  0  0  0  0  0  0  0
   -3.5960   -9.5180   68.3360   S 0  0  0  0  0  0  0  0  0  0  0  0
 17 10  1  0  0  0  0
 13 10  2  0  0  0  0
 13  8  1  0  0  0  0
 10 15  1  0  0  0  0
  8 14  1  0  0  0  0
  8  6  2  0  0  0  0
 14 11  1  0  0  0  0
 15  9  1  0  0  0  0
  6  9  1  0  0  0  0
  6 16  1  0  0  0  0
  9 18  2  0  0  0  0
 11 16  2  0  0  0  0
 11 20  1  0  0  0  0
 20 12  1  0  0  0  0
  2  1  2  0  0  0  0
  2  4  1  0  0  0  0
  1  3  1  0  0  0  0
  4  7  2  0  0  0  0
  3  5  2  0  0  0  0
  7  5  1  0  0  0  0
  7 19  1  0  0  0  0
  5 12  1  0  0  0  0
M  END
>  <InstanceId>
5U12_5RU_A_301

>  <ChemCompId>
5RU

>  <PdbId>
5U12

>  <ChainId>
A

>  <ResidueNumber>
301

>  <InsertionCode>


>  <Model>
1

>  <AltIds>


>  <MissingHeavyAtoms>
0

>  <ObservedFormula>
C12 N5 O S F

>  <Name>
2-azanyl-8-[(2-fluorophenyl)methylsulfanyl]-1,9-dihydropurin-6-one

>  <SystematicName>
2-azanyl-8-[(2-fluorophenyl)methylsulfanyl]-1,9-dihydropurin-6-one

>  <Synonyms>


>  <Type>
NON-POLYMER

>  <Formula>
C12 H10 F N5 O S

>  <MolecularWeight>
291.304

>  <ModifiedDate>
2016-04-29

>  <Parent>


>  <OneLetterCode>


>  <SubcomponentList>


>  <AmbiguousFlag>
N

>  <InChI>
InChI=1S/C12H10FN5OS/c13-7-4-2-1-3-6(7)5-20-12-15-8-9(17-12)16-11(14)18-10(8)19/h1-4H,5H2,(H4,14,15,16,17,18,19)

>  <InChIKey>
DBXBVKPIQPXRBY-UHFFFAOYSA-N

>  <SMILES>
c1ccc(c(c1)CSc2[nH]c3c(n2)C(=O)NC(=N3)N)F

$$$$
