2XYF_G40_B_1200
  RCSB PDB08012018193D
Coordinates from PDB:2XYF:B:1200 Model:1 without hydrogens
 50 52  0  0  0  0            999 V2000
   11.9580   24.2700    4.5810   C 0  0  0  0  0  0  0  0  0  0  0  0
   10.7740   24.2380    5.6010   C 0  0  0  0  0  0  0  0  0  0  0  0
   10.4900   23.2320    6.2550   O 0  0  0  0  0  0  0  0  0  0  0  0
   10.0730   25.3900    5.6720   N 0  0  0  0  0  0  0  0  0  0  0  0
    8.8200   25.7530    6.5120   C 0  0  0  0  0  0  0  0  0  0  0  0
    9.0310   26.3130    8.0550   C 0  0  0  0  0  0  0  0  0  0  0  0
    7.6680   26.6270    8.7670   C 0  0  0  0  0  0  0  0  0  0  0  0
    9.8380   27.6180    8.1010   C 0  0  0  0  0  0  0  0  0  0  0  0
    5.7060   26.8640    4.7110   C 0  0  0  0  0  0  0  0  0  0  0  0
    6.7880   26.2390    5.4790   N 0  0  0  0  0  0  0  0  0  0  0  0
    8.0450   26.7370    5.6610   C 0  0  0  0  0  0  0  0  0  0  0  0
    8.4530   27.8020    5.1940   O 0  0  0  0  0  0  0  0  0  0  0  0
    9.8020   25.3110    8.9220   C 0  0  0  0  0  0  0  0  0  0  0  0
   11.4280   23.6030    3.2360   C 0  0  0  0  0  0  0  0  0  0  0  0
   10.0480   24.1430    2.7250   C 0  0  0  0  0  0  0  0  0  0  0  0
    8.8700   23.2740    2.8490   C 0  0  0  0  0  0  0  0  0  0  0  0
    7.5720   23.7370    2.4020   C 0  0  0  0  0  0  0  0  0  0  0  0
    7.4300   25.0670    1.8270   C 0  0  0  0  0  0  0  0  0  0  0  0
    8.5880   25.9330    1.6990   C 0  0  0  0  0  0  0  0  0  0  0  0
    9.8900   25.4700    2.1470   C 0  0  0  0  0  0  0  0  0  0  0  0
   12.3340   25.6130    4.2700   O 0  0  0  0  0  0  0  0  0  0  0  0
   13.3130   23.6360    4.9970   C 0  0  0  0  0  0  0  0  0  0  0  0
   13.8590   24.0420    6.3940   C 0  0  0  0  0  0  0  0  0  0  0  0
   15.3250   23.6920    6.5870   C 0  0  0  0  0  0  0  0  0  0  0  0
   15.4570   22.3730    7.1160   N 0  0  0  0  0  0  0  0  0  0  0  0
   16.3850   22.3780    8.2360   C 0  0  0  0  0  0  0  0  0  0  0  0
   16.5950   21.0420    8.9500   C 0  0  0  0  0  0  0  0  0  0  0  0
   15.4270   20.2830    9.3630   C 0  0  0  0  0  0  0  0  0  0  0  0
   15.5930   19.0250   10.0330   C 0  0  0  0  0  0  0  0  0  0  0  0
   16.9300   18.5070   10.3020   C 0  0  0  0  0  0  0  0  0  0  0  0
   18.1110   19.2650    9.8870   C 0  0  0  0  0  0  0  0  0  0  0  0
   17.9370   20.5460    9.2020   C 0  0  0  0  0  0  0  0  0  0  0  0
   15.3210   18.9100    3.4060   C 0  0  0  0  0  0  0  0  0  0  0  0
   19.9120   17.6810    6.7600   C 0  0  0  0  0  0  0  0  0  0  0  0
   18.5230   18.0050    6.6080   O 0  0  0  0  0  0  0  0  0  0  0  0
   18.1380   18.9590    5.6360   C 0  0  0  0  0  0  0  0  0  0  0  0
   18.9230   19.7070    5.0590   O 0  0  0  0  0  0  0  0  0  0  0  0
   16.8170   18.8940    5.4740   N 0  0  0  0  0  0  0  0  0  0  0  0
   16.0370   19.7400    4.5370   C 0  0  0  0  0  0  0  0  0  0  0  0
   15.2970   20.5440    5.6090   C 0  0  0  0  0  0  0  0  0  0  0  0
   15.9710   21.5770    6.1550   N 0  0  0  0  0  0  0  0  0  0  0  0
   14.1340   20.2400    5.9480   O 0  0  0  0  0  0  0  0  0  0  0  0
   16.3920   18.2540    2.5250   C 0  0  0  0  0  0  0  0  0  0  0  0
   14.5100   19.7770    2.4660   C 0  0  0  0  0  0  0  0  0  0  0  0
   14.4770   17.7720    3.9700   C 0  0  0  0  0  0  0  0  0  0  0  0
   16.3440   14.8340   12.0850   S 0  0  0  0  0  0  0  0  0  0  0  0
   15.9230   16.3060   11.1870   C 0  0  0  0  0  0  0  0  0  0  0  0
   17.0290   17.2120   11.0100   C 0  0  0  0  0  0  0  0  0  0  0  0
   18.2330   16.6900   11.6210   C 0  0  0  0  0  0  0  0  0  0  0  0
   18.0200   15.4290   12.2320   C 0  0  0  0  0  0  0  0  0  0  0  0
  1  2  1  0  0  0  0
  1 14  1  0  0  0  0
  1 21  1  0  0  0  0
  1 22  1  0  0  0  0
  2  3  2  0  0  0  0
  2  4  1  0  0  0  0
  4  5  1  0  0  0  0
  5  6  1  0  0  0  0
  5 11  1  0  0  0  0
  6  7  1  0  0  0  0
  6  8  1  0  0  0  0
  6 13  1  0  0  0  0
  9 10  1  0  0  0  0
 10 11  1  0  0  0  0
 11 12  2  0  0  0  0
 14 15  1  0  0  0  0
 15 16  1  0  0  0  0
 15 20  2  0  0  0  0
 16 17  2  0  0  0  0
 17 18  1  0  0  0  0
 18 19  2  0  0  0  0
 19 20  1  0  0  0  0
 22 23  1  0  0  0  0
 23 24  1  0  0  0  0
 24 25  1  0  0  0  0
 25 26  1  0  0  0  0
 25 41  1  0  0  0  0
 26 27  1  0  0  0  0
 27 28  1  0  0  0  0
 27 32  2  0  0  0  0
 28 29  2  0  0  0  0
 29 30  1  0  0  0  0
 30 31  2  0  0  0  0
 30 48  1  0  0  0  0
 31 32  1  0  0  0  0
 33 39  1  0  0  0  0
 33 43  1  0  0  0  0
 33 44  1  0  0  0  0
 33 45  1  0  0  0  0
 34 35  1  0  0  0  0
 35 36  1  0  0  0  0
 36 37  2  0  0  0  0
 36 38  1  0  0  0  0
 38 39  1  0  0  0  0
 39 40  1  0  0  0  0
 40 41  1  0  0  0  0
 40 42  2  0  0  0  0
 46 47  1  0  0  0  0
 46 50  1  0  0  0  0
 47 48  2  0  0  0  0
 48 49  1  0  0  0  0
 49 50  2  0  0  0  0
M  END
>  <InstanceId>
2XYF_G40_B_1200

>  <ChemCompId>
G40

>  <PdbId>
2XYF

>  <ChainId>
B

>  <ResidueNumber>
1200

>  <InsertionCode>


>  <Model>
1

>  <AltIds>


>  <MissingHeavyAtoms>
0

>  <ObservedFormula>
C38 N5 O6 S

>  <Name>
METHYL N-[(2S)-1-[2-[(4R)-5-[[(2S)-3,3-DIMETHYL-1-METHYLAMINO-1-OXO-BUTAN-2-YL]AMINO]-4-HYDROXY-5-OXO-4-(PHENYLMETHYL)PENTYL]-2-[(4-THIOPHEN-3-YLPHENYL)METHYL]HYDRAZINYL]-3,3-DIMETHYL-1-OXO-BUTAN-2-YL]CARBAMATE

>  <SystematicName>
methyl N-[(2S)-1-[2-[(4R)-5-[[(2S)-3,3-dimethyl-1-methylamino-1-oxo-butan-2-yl]amino]-4-hydroxy-5-oxo-4-(phenylmethyl)pentyl]-2-[(4-thiophen-3-ylphenyl)methyl]hydrazinyl]-3,3-dimethyl-1-oxo-butan-2-yl]carbamate

>  <Synonyms>


>  <Type>
non-polymer

>  <Formula>
C38 H53 N5 O6 S

>  <MolecularWeight>
707.922

>  <ModifiedDate>
2011-12-02

>  <Parent>


>  <OneLetterCode>


>  <SubcomponentList>


>  <AmbiguousFlag>
N

>  <InChI>
InChI=1S/C38H53N5O6S/c1-36(2,3)30(32(44)39-7)40-34(46)38(48,23-26-13-10-9-11-14-26)20-12-21-43(42-33(45)31(37(4,5)6)41-35(47)49-8)24-27-15-17-28(18-16-27)29-19-22-50-25-29/h9-11,13-19,22,25,30-31,48H,12,20-21,23-24H2,1-8H3,(H,39,44)(H,40,46)(H,41,47)(H,42,45)/t30-,31-,38-/m1/s1

>  <InChIKey>
XNAIGGHDLWCRFU-SQQFMCCZSA-N

>  <SMILES>
CC(C)(C)[C@@H](C(=O)NC)NC(=O)[C@@](CCC[N@](Cc1ccc(cc1)c2ccsc2)NC(=O)[C@H](C(C)(C)C)NC(=O)OC)(Cc3ccccc3)O

$$$$
