3EKO_PYU_A_901
  RCSB PDB08012018563D
Coordinates from PDB:3EKO:A:901 Model:1 without hydrogens
 16 17  0  0  0  0            999 V2000
   17.3300   -3.7920   51.3110   N 0  0  0  0  0  0  0  0  0  0  0  0
   15.0750   -1.4890   50.6690   C 0  0  0  0  0  0  0  0  0  0  0  0
   16.5860    0.6050   49.4790   C 0  0  0  0  0  0  0  0  0  0  0  0
   14.5470   -0.1700   50.6470   C 0  0  0  0  0  0  0  0  0  0  0  0
   17.8580   -5.0670   51.3870   C 0  0  0  0  0  0  0  0  0  0  0  0
   17.2880   -3.2890   52.6110   C 0  0  0  0  0  0  0  0  0  0  0  0
   18.1380   -5.3550   52.7030   C 0  0  0  0  0  0  0  0  0  0  0  0
   17.7790   -4.2340   53.4710   C 0  0  0  0  0  0  0  0  0  0  0  0
   16.3580   -1.7640   50.0990   C 0  0  0  0  0  0  0  0  0  0  0  0
   15.3090    0.8690   50.0510   C 0  0  0  0  0  0  0  0  0  0  0  0
   17.1030   -0.7160   49.5080   C 0  0  0  0  0  0  0  0  0  0  0  0
   16.9180   -3.1330   50.1250   C 0  0  0  0  0  0  0  0  0  0  0  0
   17.0400   -3.7310   49.0500   O 0  0  0  0  0  0  0  0  0  0  0  0
   14.7860    2.1290   50.0470   O 0  0  0  0  0  0  0  0  0  0  0  0
   18.3320   -0.9270   48.9500   O 0  0  0  0  0  0  0  0  0  0  0  0
   14.3520   -2.5010   51.2450   O 0  0  0  0  0  0  0  0  0  0  0  0
 12  1  1  0  0  0  0
  1  5  1  0  0  0  0
  1  6  1  0  0  0  0
  9  2  2  0  0  0  0
  4  2  1  0  0  0  0
  2 16  1  0  0  0  0
  3 11  2  0  0  0  0
  3 10  1  0  0  0  0
 10  4  2  0  0  0  0
  5  7  2  0  0  0  0
  6  8  2  0  0  0  0
  7  8  1  0  0  0  0
 11  9  1  0  0  0  0
  9 12  1  0  0  0  0
 14 10  1  0  0  0  0
 15 11  1  0  0  0  0
 13 12  2  0  0  0  0
M  END
>  <InstanceId>
3EKO_PYU_A_901

>  <ChemCompId>
PYU

>  <PdbId>
3EKO

>  <ChainId>
A

>  <ResidueNumber>
901

>  <InsertionCode>


>  <Model>
1

>  <AltIds>


>  <MissingHeavyAtoms>
0

>  <ObservedFormula>
C11 N O4

>  <Name>
2-(1H-pyrrol-1-ylcarbonyl)benzene-1,3,5-triol

>  <SystematicName>
pyrrol-1-yl-(2,4,6-trihydroxyphenyl)methanone

>  <Synonyms>


>  <Type>
NON-POLYMER

>  <Formula>
C11 H9 N O4

>  <MolecularWeight>
219.193

>  <ModifiedDate>
2011-06-04

>  <Parent>


>  <OneLetterCode>


>  <SubcomponentList>


>  <AmbiguousFlag>
N

>  <InChI>
InChI=1S/C11H9NO4/c13-7-5-8(14)10(9(15)6-7)11(16)12-3-1-2-4-12/h1-6,13-15H

>  <InChIKey>
RYGSNHBTZDYVSS-UHFFFAOYSA-N

>  <SMILES>
c1ccn(c1)C(=O)c2c(cc(cc2O)O)O

$$$$
