4QNB_1B0_A_301
  RCSB PDB08012023023D
Coordinates from PDB:4QNB:A:301 Model:1 without hydrogens
 32 35  0  0  0  0            999 V2000
   16.1490   26.7250   -0.2270   O 0  0  0  0  0  0  0  0  0  0  0  0
   15.3040   25.9020   -0.0200   C 0  0  0  0  0  0  0  0  0  0  0  0
   15.2250   24.6950   -0.7830   N 0  0  0  0  0  0  0  0  0  0  0  0
   16.1210   24.4070   -1.8520   C 0  0  0  0  0  0  0  0  0  0  0  0
   15.4850   24.9000   -3.1350   C 0  0  0  0  0  0  0  0  0  0  0  0
   16.2770   25.4890   -4.2120   N 0  0  0  0  0  0  0  0  0  0  0  0
   17.7230   25.6170   -4.0020   C 0  0  0  0  0  0  0  0  0  0  0  0
   18.5780   24.6240   -4.4660   C 0  0  0  0  0  0  0  0  0  0  0  0
   19.9560   24.7330   -4.2380   C 0  0  0  0  0  0  0  0  0  0  0  0
   20.4560   25.8310   -3.5570   C 0  0  0  0  0  0  0  0  0  0  0  0
   19.5980   26.8230   -3.0860   C 0  0  0  0  0  0  0  0  0  0  0  0
   18.2270   26.7210   -3.3060   C 0  0  0  0  0  0  0  0  0  0  0  0
   15.6150   25.9290   -5.4600   C 0  0  0  0  0  0  0  0  0  0  0  0
   14.3080   24.7780   -3.2760   O 0  0  0  0  0  0  0  0  0  0  0  0
   16.3140   22.8980   -2.0330   C 0  0  0  0  0  0  0  0  0  0  0  0
   17.2480   22.4470   -0.9200   C 0  0  0  0  0  0  0  0  0  0  0  0
   18.6270   22.4770   -1.1120   C 0  0  0  0  0  0  0  0  0  0  0  0
   19.4680   22.0870   -0.0710   C 0  0  0  0  0  0  0  0  0  0  0  0
   18.9290   21.6960    1.1500   C 0  0  0  0  0  0  0  0  0  0  0  0
   17.5470   21.6870    1.3340   C 0  0  0  0  0  0  0  0  0  0  0  0
   16.7160   22.0730    0.3000   C 0  0  0  0  0  0  0  0  0  0  0  0
   14.2470   26.1540    1.0970   C 0  0  0  0  0  0  0  0  0  0  0  0
   14.8630   26.3020    2.4840   C 0  0  0  0  0  0  0  0  0  0  0  0
   15.1780   27.4790    3.1760   C 0  0  0  0  0  0  0  0  0  0  0  0
   15.0510   28.8320    2.8300   C 0  0  0  0  0  0  0  0  0  0  0  0
   15.4360   29.8090    3.7260   C 0  0  0  0  0  0  0  0  0  0  0  0
   15.9450   29.4550    4.9750   C 0  0  0  0  0  0  0  0  0  0  0  0
   16.0790   28.1250    5.3060   C 0  0  0  0  0  0  0  0  0  0  0  0
   15.6740   27.1320    4.3990   C 0  0  0  0  0  0  0  0  0  0  0  0
   15.6820   25.7350    4.4740   N 0  0  0  0  0  0  0  0  0  0  0  0
   15.1770   25.2360    3.2760   C 0  0  0  0  0  0  0  0  0  0  0  0
   15.2180   23.7230    3.4280   C 0  0  0  0  0  0  0  0  0  0  0  0
  1  2  2  0  0  0  0
  2  3  1  0  0  0  0
  2 22  1  0  0  0  0
  3  4  1  0  0  0  0
  4  5  1  0  0  0  0
  4 15  1  0  0  0  0
  5  6  1  0  0  0  0
  5 14  2  0  0  0  0
  6  7  1  0  0  0  0
  6 13  1  0  0  0  0
  7  8  1  0  0  0  0
  7 12  2  0  0  0  0
  8  9  2  0  0  0  0
  9 10  1  0  0  0  0
 10 11  2  0  0  0  0
 11 12  1  0  0  0  0
 15 16  1  0  0  0  0
 16 17  1  0  0  0  0
 16 21  2  0  0  0  0
 17 18  2  0  0  0  0
 18 19  1  0  0  0  0
 19 20  2  0  0  0  0
 20 21  1  0  0  0  0
 22 23  1  0  0  0  0
 23 24  1  0  0  0  0
 23 31  2  0  0  0  0
 24 25  1  0  0  0  0
 24 29  2  0  0  0  0
 25 26  2  0  0  0  0
 26 27  1  0  0  0  0
 27 28  2  0  0  0  0
 28 29  1  0  0  0  0
 29 30  1  0  0  0  0
 30 31  1  0  0  0  0
 31 32  1  0  0  0  0
M  END
>  <InstanceId>
4QNB_1B0_A_301

>  <ChemCompId>
1B0

>  <PdbId>
4QNB

>  <ChainId>
A

>  <ResidueNumber>
301

>  <InsertionCode>


>  <Model>
1

>  <AltIds>


>  <MissingHeavyAtoms>
0

>  <ObservedFormula>
C27 N3 O2

>  <Name>
N-METHYL-NALPHA-[(2-METHYL-1H-INDOL-3-YL)ACETYL]-N-PHENYL-L-PHENYLALANINAMIDE

>  <SystematicName>
(2S)-N-methyl-2-[2-(2-methyl-1H-indol-3-yl)ethanoylamino]-N,3-diphenyl-propanamide

>  <Synonyms>


>  <Type>
non-polymer

>  <Formula>
C27 H27 N3 O2

>  <MolecularWeight>
425.522

>  <ModifiedDate>
2011-06-04

>  <Parent>


>  <OneLetterCode>


>  <SubcomponentList>


>  <AmbiguousFlag>
N

>  <InChI>
InChI=1S/C27H27N3O2/c1-19-23(22-15-9-10-16-24(22)28-19)18-26(31)29-25(17-20-11-5-3-6-12-20)27(32)30(2)21-13-7-4-8-14-21/h3-16,25,28H,17-18H2,1-2H3,(H,29,31)/t25-/m0/s1

>  <InChIKey>
ACDFWSNAQWFRRF-VWLOTQADSA-N

>  <SMILES>
Cc1c(c2ccccc2[nH]1)CC(=O)N[C@@H](Cc3ccccc3)C(=O)N(C)c4ccccc4

$$$$
