4UND_2YQ_A_2011
  RCSB PDB08012023383D
Coordinates from PDB:4UND:A:2011 Model:1 without hydrogens
 28 32  0  0  0  0            999 V2000
    0.3870   63.9150  190.4380   N 0  0  0  0  0  0  0  0  0  0  0  0
    1.1370   62.3990  186.5710   N 0  0  0  0  0  0  0  0  0  0  0  0
   -1.4770   62.3180  190.5570   C 0  0  0  0  0  0  0  0  0  0  0  0
    1.6040   64.1070  188.5680   C 0  0  0  0  0  0  0  0  0  0  0  0
    1.8630   63.5710  187.0940   C 0  0  0  0  0  0  0  0  0  0  0  0
    0.0550   61.9380  187.2580   C 0  0  0  0  0  0  0  0  0  0  0  0
   -0.7730   60.9750  186.6680   C 0  0  0  0  0  0  0  0  0  0  0  0
   -2.0450   60.9110  188.7020   C 0  0  0  0  0  0  0  0  0  0  0  0
    4.7170   64.8910  185.4450   C 0  0  0  0  0  0  0  0  0  0  0  0
    5.3770   64.2140  187.6550   C 0  0  0  0  0  0  0  0  0  0  0  0
    1.0690   65.5750  188.4420   C 0  0  0  0  0  0  0  0  0  0  0  0
    7.4250   65.4000  185.9850   F 0  0  0  0  0  0  0  0  0  0  0  0
    5.6880   64.7880  186.4150   C 0  0  0  0  0  0  0  0  0  0  0  0
    3.4570   64.4170  185.6890   C 0  0  0  0  0  0  0  0  0  0  0  0
    4.1130   63.7510  187.9160   C 0  0  0  0  0  0  0  0  0  0  0  0
    3.1720   63.8050  186.9000   C 0  0  0  0  0  0  0  0  0  0  0  0
   -0.2450   65.9840  188.6520   N 0  0  0  0  0  0  0  0  0  0  0  0
   -0.4570   67.3180  188.4510   C 0  0  0  0  0  0  0  0  0  0  0  0
    0.7200   67.8200  188.1200   N 0  0  0  0  0  0  0  0  0  0  0  0
    1.6890   66.7600  188.0840   N 0  0  0  0  0  0  0  0  0  0  0  0
    3.0590   67.2140  187.7160   C 0  0  0  0  0  0  0  0  0  0  0  0
    0.6440   63.4150  189.1920   C 0  0  0  0  0  0  0  0  0  0  0  0
   -0.1560   62.4070  188.5420   C 0  0  0  0  0  0  0  0  0  0  0  0
   -1.8420   60.4530  187.4130   C 0  0  0  0  0  0  0  0  0  0  0  0
   -2.7970   59.4420  186.9090   F 0  0  0  0  0  0  0  0  0  0  0  0
   -1.2240   61.8760  189.2500   C 0  0  0  0  0  0  0  0  0  0  0  0
   -2.3870   61.8030  191.2070   O 0  0  0  0  0  0  0  0  0  0  0  0
   -0.6990   63.3440  191.1440   N 0  0  0  0  0  0  0  0  0  0  0  0
 27  3  2  0  0  0  0
  3 28  1  0  0  0  0
  3 26  1  0  0  0  0
 28  1  1  0  0  0  0
  8 26  2  0  0  0  0
  8 24  1  0  0  0  0
 26 23  1  0  0  0  0
 25 24  1  0  0  0  0
 24  7  2  0  0  0  0
  1 22  2  0  0  0  0
 23 22  1  0  0  0  0
 23  6  2  0  0  0  0
 22  4  1  0  0  0  0
  7  6  1  0  0  0  0
  6  2  1  0  0  0  0
 21 20  1  0  0  0  0
  4 11  1  0  0  0  0
  4  5  1  0  0  0  0
  2  5  1  0  0  0  0
 20 11  1  0  0  0  0
 20 19  1  0  0  0  0
 14  9  2  0  0  0  0
 14 16  1  0  0  0  0
 11 17  2  0  0  0  0
  5 16  1  0  0  0  0
  9 13  1  0  0  0  0
 19 18  2  0  0  0  0
 16 15  2  0  0  0  0
 17 18  1  0  0  0  0
 13 12  1  0  0  0  0
 13 10  2  0  0  0  0
 15 10  1  0  0  0  0
M  END
>  <InstanceId>
4UND_2YQ_A_2011

>  <ChemCompId>
2YQ

>  <PdbId>
4UND

>  <ChainId>
A

>  <ResidueNumber>
2011

>  <InsertionCode>


>  <Model>
1

>  <AltIds>


>  <MissingHeavyAtoms>
0

>  <ObservedFormula>
C19 N6 O F2

>  <Name>
(8S,9R)-5-fluoro-8-(4-fluorophenyl)-9-(1-methyl-1H-1,2,4-triazol-5-yl)-2,7,8,9-tetrahydro-3H-pyrido[4,3,2-de]phthalazin-3-one

>  <SystematicName>


>  <Synonyms>


>  <Type>
NON-POLYMER

>  <Formula>
C19 H14 F2 N6 O

>  <MolecularWeight>
380.351

>  <ModifiedDate>
2014-09-19

>  <Parent>


>  <OneLetterCode>


>  <SubcomponentList>


>  <AmbiguousFlag>
N

>  <InChI>
InChI=1S/C19H14F2N6O/c1-27-18(22-8-23-27)15-16(9-2-4-10(20)5-3-9)24-13-7-11(21)6-12-14(13)17(15)25-26-19(12)28/h2-8,15-16,24H,1H3,(H,26,28)/t15-,16-/m1/s1

>  <InChIKey>
HWGQMRYQVZSGDQ-HZPDHXFCSA-N

>  <SMILES>
Cn1c(ncn1)[C@@H]2[C@H](Nc3cc(cc4c3C2=NNC4=O)F)c5ccc(cc5)F

$$$$
