5KQY_017_B_101
  RCSB PDB08022002053D
Coordinates from PDB:5KQY:B:101 Model:1 without hydrogens
 38 41  0  0  0  0            999 V2000
  -14.2730    6.6300  -14.8190   N 0  0  0  0  0  0  0  0  0  0  0  0
  -14.6240    7.5800  -15.8290   C 0  0  0  0  0  0  0  0  0  0  0  0
  -15.2980    7.1360  -16.9580   C 0  0  0  0  0  0  0  0  0  0  0  0
  -15.6460    8.0430  -17.9460   C 0  0  0  0  0  0  0  0  0  0  0  0
  -15.3210    9.3820  -17.7890   C 0  0  0  0  0  0  0  0  0  0  0  0
  -14.6480    9.8340  -16.6660   C 0  0  0  0  0  0  0  0  0  0  0  0
  -14.2980    8.9200  -15.6690   C 0  0  0  0  0  0  0  0  0  0  0  0
  -15.8010   10.5300  -19.1030   S 0  0  0  0  0  0  0  0  0  0  0  0
  -14.7770   11.5080  -19.2730   O 0  0  0  0  0  0  0  0  0  0  0  0
  -15.9510    9.8300  -20.3320   O 0  0  0  0  0  0  0  0  0  0  0  0
  -17.2760   11.2530  -18.6980   N 0  0  0  0  0  0  0  0  0  0  0  0
  -18.3840   10.3400  -18.4380   C 0  0  0  0  0  0  0  0  0  0  0  0
  -19.7050   10.6560  -19.1900   C 0  0  0  0  0  0  0  0  0  0  0  0
  -19.5210   10.6140  -20.7050   C 0  0  0  0  0  0  0  0  0  0  0  0
  -20.6880    9.5670  -18.8120   C 0  0  0  0  0  0  0  0  0  0  0  0
  -17.2370   12.5790  -18.0500   C 0  0  0  0  0  0  0  0  0  0  0  0
  -17.8140   13.6250  -19.0140   C 0  0  0  0  0  0  0  0  0  0  0  0
  -18.2790   14.7130  -18.2830   O 0  0  0  0  0  0  0  0  0  0  0  0
  -16.7870   14.0870  -20.0510   C 0  0  0  0  0  0  0  0  0  0  0  0
  -17.4460   15.0400  -20.8730   N 0  0  0  0  0  0  0  0  0  0  0  0
  -17.9350   14.7330  -22.1880   C 0  0  0  0  0  0  0  0  0  0  0  0
  -17.7560   13.6570  -22.7430   O 0  0  0  0  0  0  0  0  0  0  0  0
  -18.6580   15.8000  -22.7980   O 0  0  0  0  0  0  0  0  0  0  0  0
  -18.9150   15.7390  -24.1540   C 0  0  0  0  0  0  0  0  0  0  0  0
  -20.2740   16.2790  -24.3410   C 0  0  0  0  0  0  0  0  0  0  0  0
  -20.1230   17.5790  -24.2520   O 0  0  0  0  0  0  0  0  0  0  0  0
  -18.6840   17.8850  -24.8650   C 0  0  0  0  0  0  0  0  0  0  0  0
  -17.9750   18.8620  -23.9300   O 0  0  0  0  0  0  0  0  0  0  0  0
  -16.8530   18.0810  -23.3250   C 0  0  0  0  0  0  0  0  0  0  0  0
  -16.6530   17.1030  -24.1190   C 0  0  0  0  0  0  0  0  0  0  0  0
  -18.0410   16.8090  -24.8840   C 0  0  0  0  0  0  0  0  0  0  0  0
  -15.5660   14.7920  -19.4720   C 0  0  0  0  0  0  0  0  0  0  0  0
  -14.6090   16.5280  -20.9030   C 0  0  0  0  0  0  0  0  0  0  0  0
  -13.8460   17.0410  -21.9520   C 0  0  0  0  0  0  0  0  0  0  0  0
  -13.1160   16.1810  -22.7600   C 0  0  0  0  0  0  0  0  0  0  0  0
  -13.1580   14.8070  -22.5110   C 0  0  0  0  0  0  0  0  0  0  0  0
  -13.9180   14.2970  -21.4640   C 0  0  0  0  0  0  0  0  0  0  0  0
  -14.6510   15.1590  -20.6600   C 0  0  0  0  0  0  0  0  0  0  0  0
  1  2  1  0  0  0  0
  2  3  2  0  0  0  0
  2  7  1  0  0  0  0
  3  4  1  0  0  0  0
  4  5  2  0  0  0  0
  5  6  1  0  0  0  0
  5  8  1  0  0  0  0
  6  7  2  0  0  0  0
  8  9  2  0  0  0  0
  8 10  2  0  0  0  0
  8 11  1  0  0  0  0
 11 12  1  0  0  0  0
 11 16  1  0  0  0  0
 12 13  1  0  0  0  0
 13 14  1  0  0  0  0
 13 15  1  0  0  0  0
 16 17  1  0  0  0  0
 17 18  1  0  0  0  0
 17 19  1  0  0  0  0
 19 20  1  0  0  0  0
 19 32  1  0  0  0  0
 20 21  1  0  0  0  0
 21 22  2  0  0  0  0
 21 23  1  0  0  0  0
 23 24  1  0  0  0  0
 24 25  1  0  0  0  0
 24 31  1  0  0  0  0
 25 26  1  0  0  0  0
 26 27  1  0  0  0  0
 27 28  1  0  0  0  0
 27 31  1  0  0  0  0
 28 29  1  0  0  0  0
 29 30  1  0  0  0  0
 30 31  1  0  0  0  0
 32 38  1  0  0  0  0
 33 34  2  0  0  0  0
 33 38  1  0  0  0  0
 34 35  1  0  0  0  0
 35 36  2  0  0  0  0
 36 37  1  0  0  0  0
 37 38  2  0  0  0  0
M  END
>  <InstanceId>
5KQY_017_B_101

>  <ChemCompId>
017

>  <PdbId>
5KQY

>  <ChainId>
B

>  <ResidueNumber>
101

>  <InsertionCode>


>  <Model>
1

>  <AltIds>


>  <MissingHeavyAtoms>
0

>  <ObservedFormula>
C27 N3 O7 S

>  <Name>
(3R,3AS,6AR)-HEXAHYDROFURO[2,3-B]FURAN-3-YL(1S,2R)-3-[[(4-AMINOPHENYL)SULFONYL](ISOBUTYL)AMINO]-1-BENZYL-2-HYDROXYPROPYLCARBAMATE

>  <SystematicName>
[(3R,3aS,6aR)-2,3,3a,4,5,6a-hexahydrofuro[2,3-b]furan-3-yl] N-[(2S,3R)-4-[(4-aminophenyl)sulfonyl-(2-methylpropyl)amino]-3-hydroxy-1-phenyl-butan-2-yl]carbamate

>  <Synonyms>
Darunavir; TMC114; UIC-94017

>  <Type>
NON-POLYMER

>  <Formula>
C27 H37 N3 O7 S

>  <MolecularWeight>
547.664

>  <ModifiedDate>
2020-05-22

>  <Parent>


>  <OneLetterCode>


>  <SubcomponentList>


>  <AmbiguousFlag>
N

>  <InChI>
InChI=1S/C27H37N3O7S/c1-18(2)15-30(38(33,34)21-10-8-20(28)9-11-21)16-24(31)23(14-19-6-4-3-5-7-19)29-27(32)37-25-17-36-26-22(25)12-13-35-26/h3-11,18,22-26,31H,12-17,28H2,1-2H3,(H,29,32)/t22-,23-,24+,25-,26+/m0/s1

>  <InChIKey>
CJBJHOAVZSMMDJ-HEXNFIEUSA-N

>  <SMILES>
CC(C)C[N@@](C[C@H]([C@H](Cc1ccccc1)NC(=O)O[C@H]2CO[C@@H]3[C@H]2CCO3)O)S(=O)(=O)c4ccc(cc4)N

$$$$
