4I3Z_ADP_A_301
  RCSB PDB08012021593D
Coordinates from PDB:4I3Z:A:301 Model:1 without hydrogens
 27 29  0  0  0  0            999 V2000
    1.0620  -36.9150   -4.3740   P 0  0  0  0  0  0  0  0  0  0  0  0
   -0.2910  -37.0850   -5.0210   O 0  0  0  0  0  0  0  0  0  0  0  0
    2.1550  -36.6300   -5.3750   O 0  0  0  0  0  0  0  0  0  0  0  0
    1.0620  -36.0060   -3.1680   O 0  0  0  0  0  0  0  0  0  0  0  0
    2.1970  -38.7120   -2.4200   P 0  0  0  0  0  0  0  0  0  0  0  0
    2.5170  -37.4610   -1.6480   O 0  0  0  0  0  0  0  0  0  0  0  0
    3.3130  -39.6840   -2.7100   O 0  0  0  0  0  0  0  0  0  0  0  0
    1.4160  -38.3860   -3.8010   O 0  0  0  0  0  0  0  0  0  0  0  0
    1.0410  -39.4860   -1.6130   O 0  0  0  0  0  0  0  0  0  0  0  0
   -0.1510  -38.7980   -1.2260   C 0  0  0  0  0  0  0  0  0  0  0  0
   -0.5580  -39.1960    0.1880   C 0  0  0  0  0  0  0  0  0  0  0  0
   -0.7010  -40.6170    0.2850   O 0  0  0  0  0  0  0  0  0  0  0  0
    0.4960  -38.8130    1.2120   C 0  0  0  0  0  0  0  0  0  0  0  0
    0.2670  -37.5160    1.7750   O 0  0  0  0  0  0  0  0  0  0  0  0
    0.3930  -39.8990    2.2620   C 0  0  0  0  0  0  0  0  0  0  0  0
   -0.5400  -39.5220    3.2840   O 0  0  0  0  0  0  0  0  0  0  0  0
   -0.1450  -41.0970    1.5080   C 0  0  0  0  0  0  0  0  0  0  0  0
    1.0210  -41.9610    1.2170   N 0  0  0  0  0  0  0  0  0  0  0  0
    1.8180  -41.8730    0.1330   C 0  0  0  0  0  0  0  0  0  0  0  0
    2.8010  -42.8080    0.1750   N 0  0  0  0  0  0  0  0  0  0  0  0
    2.6380  -43.5080    1.3130   C 0  0  0  0  0  0  0  0  0  0  0  0
    3.3290  -44.6370    1.9770   C 0  0  0  0  0  0  0  0  0  0  0  0
    4.4170  -45.1950    1.4000   N 0  0  0  0  0  0  0  0  0  0  0  0
    2.8440  -45.0780    3.1640   N 0  0  0  0  0  0  0  0  0  0  0  0
    1.7600  -44.5110    3.7270   C 0  0  0  0  0  0  0  0  0  0  0  0
    1.0830  -43.4800    3.1840   N 0  0  0  0  0  0  0  0  0  0  0  0
    1.4650  -42.9470    1.9990   C 0  0  0  0  0  0  0  0  0  0  0  0
  1  2  2  0  0  0  0
  1  3  1  0  0  0  0
  1  4  1  0  0  0  0
  1  8  1  0  0  0  0
  5  6  2  0  0  0  0
  5  7  1  0  0  0  0
  5  8  1  0  0  0  0
  5  9  1  0  0  0  0
  9 10  1  0  0  0  0
 10 11  1  0  0  0  0
 11 12  1  0  0  0  0
 11 13  1  0  0  0  0
 12 17  1  0  0  0  0
 13 14  1  0  0  0  0
 13 15  1  0  0  0  0
 15 16  1  0  0  0  0
 15 17  1  0  0  0  0
 17 18  1  0  0  0  0
 18 19  1  0  0  0  0
 18 27  1  0  0  0  0
 19 20  2  0  0  0  0
 20 21  1  0  0  0  0
 21 22  1  0  0  0  0
 21 27  2  0  0  0  0
 22 23  1  0  0  0  0
 22 24  2  0  0  0  0
 24 25  1  0  0  0  0
 25 26  2  0  0  0  0
 26 27  1  0  0  0  0
M  END
>  <InstanceId>
4I3Z_ADP_A_301

>  <ChemCompId>
ADP

>  <PdbId>
4I3Z

>  <ChainId>
A

>  <ResidueNumber>
301

>  <InsertionCode>


>  <Model>
1

>  <AltIds>


>  <MissingHeavyAtoms>
0

>  <ObservedFormula>
C10 N5 O10 P2

>  <Name>
ADENOSINE-5'-DIPHOSPHATE

>  <SystematicName>
[(2R,3S,4R,5R)-5-(6-aminopurin-9-yl)-3,4-dihydroxy-oxolan-2-yl]methyl phosphono hydrogen phosphate

>  <Synonyms>


>  <Type>
NON-POLYMER

>  <Formula>
C10 H15 N5 O10 P2

>  <MolecularWeight>
427.201

>  <ModifiedDate>
2011-06-04

>  <Parent>
A

>  <OneLetterCode>


>  <SubcomponentList>


>  <AmbiguousFlag>
N

>  <InChI>
InChI=1S/C10H15N5O10P2/c11-8-5-9(13-2-12-8)15(3-14-5)10-7(17)6(16)4(24-10)1-23-27(21,22)25-26(18,19)20/h2-4,6-7,10,16-17H,1H2,(H,21,22)(H2,11,12,13)(H2,18,19,20)/t4-,6-,7-,10-/m1/s1

>  <InChIKey>
XTWYTFMLZFPYCI-KQYNXXCUSA-N

>  <SMILES>
c1nc(c2c(n1)n(cn2)[C@H]3[C@@H]([C@@H]([C@H](O3)CO[P@](=O)(O)OP(=O)(O)O)O)O)N

$$$$
