6FAF_D3B_A_302
  RCSB PDB08022004383D
Coordinates from PDB:6FAF:A:302 Model:1 without hydrogens
 23 24  0  0  0  0            999 V2000
   13.3960   33.4610   18.7310   C 0  0  0  0  0  0  0  0  0  0  0  0
   13.7620   34.4100   19.6730   C 0  0  0  0  0  0  0  0  0  0  0  0
   14.3660   35.5900   19.2580   C 0  0  0  0  0  0  0  0  0  0  0  0
   14.5930   35.8420   17.9100   C 0  0  0  0  0  0  0  0  0  0  0  0
   11.1060   35.6430   14.3340   C 0  0  0  0  0  0  0  0  0  0  0  0
   11.0330   36.3410   13.1230   C 0  0  0  0  0  0  0  0  0  0  0  0
   12.3220   35.6110   15.0720   N 0  0  0  0  0  0  0  0  0  0  0  0
   13.5800   35.3220   14.5910   C 0  0  0  0  0  0  0  0  0  0  0  0
   13.8680   35.3070   13.3960   O 0  0  0  0  0  0  0  0  0  0  0  0
   14.4940   35.0530   15.5820   N 0  0  0  0  0  0  0  0  0  0  0  0
   14.2370   34.8760   16.9630   C 0  0  0  0  0  0  0  0  0  0  0  0
   13.6350   33.6810   17.3770   C 0  0  0  0  0  0  0  0  0  0  0  0
    9.8530   36.4040   12.3940   C 0  0  0  0  0  0  0  0  0  0  0  0
    8.7310   35.7700   12.9130   C 0  0  0  0  0  0  0  0  0  0  0  0
    8.7870   35.0750   14.1090   C 0  0  0  0  0  0  0  0  0  0  0  0
    9.9690   34.9780   14.8430   C 0  0  0  0  0  0  0  0  0  0  0  0
   12.9970   32.9330   16.4350   O 0  0  0  0  0  0  0  0  0  0  0  0
   14.9290   36.7520   20.4670   S 0  0  0  0  0  0  0  0  0  0  0  0
   15.2620   36.0100   21.6430   O 0  0  0  0  0  0  0  0  0  0  0  0
   13.9450   37.7890   20.5620   O 0  0  0  0  0  0  0  0  0  0  0  0
   16.2850   37.4340   19.9360   N 0  0  0  0  0  0  0  0  0  0  0  0
   10.0220   34.1510   16.1020   C 0  0  0  0  0  0  0  0  0  0  0  0
    9.8020   37.1120   11.0620   C 0  0  0  0  0  0  0  0  0  0  0  0
 23 13  1  0  0  0  0
 13 14  2  0  0  0  0
 13  6  1  0  0  0  0
 14 15  1  0  0  0  0
  6  5  2  0  0  0  0
  9  8  2  0  0  0  0
 15 16  2  0  0  0  0
  5 16  1  0  0  0  0
  5  7  1  0  0  0  0
  8  7  1  0  0  0  0
  8 10  1  0  0  0  0
 16 22  1  0  0  0  0
 10 11  1  0  0  0  0
 17 12  1  0  0  0  0
 11 12  2  0  0  0  0
 11  4  1  0  0  0  0
 12  1  1  0  0  0  0
  4  3  2  0  0  0  0
  1  2  2  0  0  0  0
  3  2  1  0  0  0  0
  3 18  1  0  0  0  0
 21 18  1  0  0  0  0
 18 20  2  0  0  0  0
 18 19  2  0  0  0  0
M  END
>  <InstanceId>
6FAF_D3B_A_302

>  <ChemCompId>
D3B

>  <PdbId>
6FAF

>  <ChainId>
A

>  <ResidueNumber>
302

>  <InsertionCode>


>  <Model>
1

>  <AltIds>


>  <MissingHeavyAtoms>
0

>  <ObservedFormula>
C15 N3 O4 S

>  <Name>
1-(2,5-dimethylphenyl)-3-(2-oxidanyl-5-sulfamoyl-phenyl)urea

>  <SystematicName>
1-(2,5-dimethylphenyl)-3-(2-oxidanyl-5-sulfamoyl-phenyl)urea

>  <Synonyms>


>  <Type>
NON-POLYMER

>  <Formula>
C15 H17 N3 O4 S

>  <MolecularWeight>
335.378

>  <ModifiedDate>
2018-10-05

>  <Parent>


>  <OneLetterCode>


>  <SubcomponentList>


>  <AmbiguousFlag>
N

>  <InChI>
InChI=1S/C15H17N3O4S/c1-9-3-4-10(2)12(7-9)17-15(20)18-13-8-11(23(16,21)22)5-6-14(13)19/h3-8,19H,1-2H3,(H2,16,21,22)(H2,17,18,20)

>  <InChIKey>
ITJAYNQSUKWUOO-UHFFFAOYSA-N

>  <SMILES>
Cc1ccc(c(c1)NC(=O)Nc2cc(ccc2O)S(=O)(=O)N)C

$$$$
