4Q6E_KR5_A_305
  RCSB PDB08012022583D
Coordinates from PDB:4Q6E:A:305 Model:1 without hydrogens
 22 23  0  0  0  0            999 V2000
   -1.4630    7.6290   14.8130   O 0  0  0  0  0  0  0  0  0  0  0  0
   -1.9260    7.7880   13.7050   C 0  0  0  0  0  0  0  0  0  0  0  0
   -1.9000    9.1550   13.3270   N 0  0  0  0  0  0  0  0  0  0  0  0
   -1.2400   10.1920   14.1090   C 0  0  0  0  0  0  0  0  0  0  0  0
   -0.3690    9.8220   15.2700   C 0  0  0  0  0  0  0  0  0  0  0  0
   -1.4110   11.4470   13.4700   C 0  0  0  0  0  0  0  0  0  0  0  0
   -2.2640   11.1650   12.3590   C 0  0  0  0  0  0  0  0  0  0  0  0
   -2.8250   12.1260   11.3810   C 0  0  0  0  0  0  0  0  0  0  0  0
   -2.5550    9.8190   12.3020   N 0  0  0  0  0  0  0  0  0  0  0  0
   -2.2660    6.8360   12.6570   C 0  0  0  0  0  0  0  0  0  0  0  0
   -2.6070    5.5220   13.2770   C 0  0  0  0  0  0  0  0  0  0  0  0
   -3.9710    5.5230   13.8660   N 0  0  0  0  0  0  0  0  0  0  0  0
   -4.4150    4.3960   14.5740   C 0  0  0  0  0  0  0  0  0  0  0  0
   -3.5530    3.3960   14.9500   C 0  0  0  0  0  0  0  0  0  0  0  0
   -4.0390    2.2740   15.6610   C 0  0  0  0  0  0  0  0  0  0  0  0
   -5.7780    4.3380   14.8900   C 0  0  0  0  0  0  0  0  0  0  0  0
   -6.2510    3.2340   15.5850   C 0  0  0  0  0  0  0  0  0  0  0  0
   -5.4030    2.1930   15.9700   C 0  0  0  0  0  0  0  0  0  0  0  0
   -6.0160    0.7940   16.8330   S 0  0  0  0  0  0  0  0  0  0  0  0
   -7.4090    0.8390   16.6960   O 0  0  0  0  0  0  0  0  0  0  0  0
   -5.4580    0.8760   18.1760   O 0  0  0  0  0  0  0  0  0  0  0  0
   -5.4490   -0.5260   16.0910   N 0  0  0  0  0  0  0  0  0  0  0  0
  8  7  1  0  0  0  0
  9  7  2  0  0  0  0
  9  3  1  0  0  0  0
  7  6  1  0  0  0  0
 10 11  1  0  0  0  0
 10  2  1  0  0  0  0
 11 12  1  0  0  0  0
  3  2  1  0  0  0  0
  3  4  1  0  0  0  0
  6  4  2  0  0  0  0
  2  1  2  0  0  0  0
 12 13  1  0  0  0  0
  4  5  1  0  0  0  0
 13 16  2  0  0  0  0
 13 14  1  0  0  0  0
 16 17  1  0  0  0  0
 14 15  2  0  0  0  0
 17 18  2  0  0  0  0
 15 18  1  0  0  0  0
 18 19  1  0  0  0  0
 22 19  1  0  0  0  0
 20 19  2  0  0  0  0
 19 21  2  0  0  0  0
M  END
>  <InstanceId>
4Q6E_KR5_A_305

>  <ChemCompId>
KR5

>  <PdbId>
4Q6E

>  <ChainId>
A

>  <ResidueNumber>
305

>  <InsertionCode>


>  <Model>
1

>  <AltIds>


>  <MissingHeavyAtoms>
0

>  <ObservedFormula>
C14 N4 O3 S

>  <Name>
4-{[3-(3,5-dimethyl-1H-pyrazol-1-yl)-3-oxopropyl]amino}benzenesulfonamide

>  <SystematicName>
4-[[3-(3,5-dimethylpyrazol-1-yl)-3-oxidanylidene-propyl]amino]benzenesulfonamide

>  <Synonyms>


>  <Type>
NON-POLYMER

>  <Formula>
C14 H18 N4 O3 S

>  <MolecularWeight>
322.383

>  <ModifiedDate>
2014-11-21

>  <Parent>


>  <OneLetterCode>


>  <SubcomponentList>


>  <AmbiguousFlag>
N

>  <InChI>
InChI=1S/C14H18N4O3S/c1-10-9-11(2)18(17-10)14(19)7-8-16-12-3-5-13(6-4-12)22(15,20)21/h3-6,9,16H,7-8H2,1-2H3,(H2,15,20,21)

>  <InChIKey>
SQGUOOCGLKRFBU-UHFFFAOYSA-N

>  <SMILES>
Cc1cc(n(n1)C(=O)CCNc2ccc(cc2)S(=O)(=O)N)C

$$$$
