2Y8C_DUQ_A_400
  RCSB PDB08012018213D
Coordinates from PDB:2Y8C:A:400 Model:1 without hydrogens
 38 41  0  0  0  0            999 V2000
   -2.0330   25.4040   -0.9160   O 0  0  0  0  0  0  0  0  0  0  0  0
   -3.1920   25.4130   -0.4620   C 0  0  0  0  0  0  0  0  0  0  0  0
   -4.0470   24.3630   -0.6210   N 0  0  0  0  0  0  0  0  0  0  0  0
   -5.2950   24.4280   -0.1040   C 0  0  0  0  0  0  0  0  0  0  0  0
   -6.1410   23.5020   -0.1760   O 0  0  0  0  0  0  0  0  0  0  0  0
   -3.5810   26.5450    0.2040   C 0  0  0  0  0  0  0  0  0  0  0  0
   -4.8910   26.6240    0.7080   C 0  0  0  0  0  0  0  0  0  0  0  0
   -5.7180   25.5780    0.5790   N 0  0  0  0  0  0  0  0  0  0  0  0
   -7.1290   25.6180    1.0460   C 0  0  0  0  0  0  0  0  0  0  0  0
   -7.8340   26.8220    0.3880   C 0  0  0  0  0  0  0  0  0  0  0  0
   -9.2830   27.0750    0.7800   C 0  0  0  0  0  0  0  0  0  0  0  0
  -10.3300   26.6260    0.0970   N 0  0  0  0  0  0  0  0  0  0  0  0
  -11.7300   26.8630    0.4800   C 0  0  0  0  0  0  0  0  0  0  0  0
  -12.5360   25.9670   -0.4560   C 0  0  0  0  0  0  0  0  0  0  0  0
  -12.5900   26.6450   -1.7310   O 0  0  0  0  0  0  0  0  0  0  0  0
   -9.4240   27.7810    1.7290   O 0  0  0  0  0  0  0  0  0  0  0  0
   -7.6240   26.8950   -1.0970   C 0  0  0  0  0  0  0  0  0  0  0  0
   -8.3430   28.0280   -1.8470   C 0  0  0  0  0  0  0  0  0  0  0  0
   -9.0220   27.2660   -2.8810   O 0  0  0  0  0  0  0  0  0  0  0  0
   -8.4630   27.2000   -4.2170   C 0  0  0  0  0  0  0  0  0  0  0  0
   -9.2720   26.0900   -4.8620   C 0  0  0  0  0  0  0  0  0  0  0  0
  -10.4610   25.6460   -4.2450   C 0  0  0  0  0  0  0  0  0  0  0  0
  -11.1880   24.5950   -4.8470   C 0  0  0  0  0  0  0  0  0  0  0  0
  -10.8010   24.0140   -6.0580   C 0  0  0  0  0  0  0  0  0  0  0  0
   -9.6320   24.4860   -6.6780   C 0  0  0  0  0  0  0  0  0  0  0  0
   -8.9160   25.5180   -6.0860   C 0  0  0  0  0  0  0  0  0  0  0  0
   -8.8610   28.4920   -4.9180   C 0  0  0  0  0  0  0  0  0  0  0  0
   -9.8900   29.2920   -4.3520   C 0  0  0  0  0  0  0  0  0  0  0  0
  -10.3020   30.4900   -4.9780   C 0  0  0  0  0  0  0  0  0  0  0  0
   -9.7100   30.8580   -6.2000   C 0  0  0  0  0  0  0  0  0  0  0  0
   -8.7000   30.0650   -6.7890   C 0  0  0  0  0  0  0  0  0  0  0  0
   -8.2770   28.8830   -6.1440   C 0  0  0  0  0  0  0  0  0  0  0  0
   -6.9310   26.9170   -4.1300   C 0  0  0  0  0  0  0  0  0  0  0  0
   -6.4500   25.6250   -3.8040   C 0  0  0  0  0  0  0  0  0  0  0  0
   -5.0400   25.3500   -3.6600   C 0  0  0  0  0  0  0  0  0  0  0  0
   -4.1280   26.3820   -3.8750   C 0  0  0  0  0  0  0  0  0  0  0  0
   -4.5850   27.6880   -4.1960   C 0  0  0  0  0  0  0  0  0  0  0  0
   -5.9690   27.9430   -4.3140   C 0  0  0  0  0  0  0  0  0  0  0  0
  1  2  2  0  0  0  0
  2  3  1  0  0  0  0
  2  6  1  0  0  0  0
  3  4  1  0  0  0  0
  4  5  2  0  0  0  0
  4  8  1  0  0  0  0
  6  7  2  0  0  0  0
  7  8  1  0  0  0  0
  8  9  1  0  0  0  0
  9 10  1  0  0  0  0
 10 11  1  0  0  0  0
 10 17  1  0  0  0  0
 11 12  1  0  0  0  0
 11 16  2  0  0  0  0
 12 13  1  0  0  0  0
 13 14  1  0  0  0  0
 14 15  1  0  0  0  0
 17 18  1  0  0  0  0
 18 19  1  0  0  0  0
 19 20  1  0  0  0  0
 20 21  1  0  0  0  0
 20 27  1  0  0  0  0
 20 33  1  0  0  0  0
 21 22  1  0  0  0  0
 21 26  2  0  0  0  0
 22 23  2  0  0  0  0
 23 24  1  0  0  0  0
 24 25  2  0  0  0  0
 25 26  1  0  0  0  0
 27 28  1  0  0  0  0
 27 32  2  0  0  0  0
 28 29  2  0  0  0  0
 29 30  1  0  0  0  0
 30 31  2  0  0  0  0
 31 32  1  0  0  0  0
 33 34  1  0  0  0  0
 33 38  2  0  0  0  0
 34 35  2  0  0  0  0
 35 36  1  0  0  0  0
 36 37  2  0  0  0  0
 37 38  1  0  0  0  0
M  END
>  <InstanceId>
2Y8C_DUQ_A_400

>  <ChemCompId>
DUQ

>  <PdbId>
2Y8C

>  <ChainId>
A

>  <ResidueNumber>
400

>  <InsertionCode>


>  <Model>
1

>  <AltIds>


>  <MissingHeavyAtoms>
0

>  <ObservedFormula>
C30 N3 O5

>  <Name>
(2S)-2-[(2,4-dioxopyrimidin-1-yl)methyl]-N-(2-hydroxyethyl)-4-trityloxy-butanamide

>  <SystematicName>
(2S)-2-[(2,4-dioxopyrimidin-1-yl)methyl]-N-(2-hydroxyethyl)-4-trityloxy-butanamide

>  <Synonyms>
5'-TRITYLATED DEOXYURIDINE ANALOGUE

>  <Type>
non-polymer

>  <Formula>
C30 H31 N3 O5

>  <MolecularWeight>
513.584

>  <ModifiedDate>
2020-06-17

>  <Parent>


>  <OneLetterCode>


>  <SubcomponentList>


>  <AmbiguousFlag>
N

>  <InChI>
InChI=1S/C30H31N3O5/c34-20-18-31-28(36)23(22-33-19-16-27(35)32-29(33)37)17-21-38-30(24-10-4-1-5-11-24,25-12-6-2-7-13-25)26-14-8-3-9-15-26/h1-16,19,23,34H,17-18,20-22H2,(H,31,36)(H,32,35,37)/t23-/m0/s1

>  <InChIKey>
POOIRAMVDDLAIT-QHCPKHFHSA-N

>  <SMILES>
c1ccc(cc1)C(c2ccccc2)(c3ccccc3)OCC[C@@H](CN4C=CC(=O)NC4=O)C(=O)NCCO

$$$$
