1MRW_K57_A_1001
  RCSB PDB08012015293D
Coordinates from PDB:1MRW:A:1001 Model:1 without hydrogens
 37 39  0  0  0  0            999 V2000
   11.1140   17.7090   19.0530   C 0  0  0  0  0  0  0  0  0  0  0  0
   11.1960   18.3940   17.8240   C 0  0  0  0  0  0  0  0  0  0  0  0
   12.2820   19.2640   17.5690   C 0  0  0  0  0  0  0  0  0  0  0  0
   13.3080   19.4670   18.5420   C 0  0  0  0  0  0  0  0  0  0  0  0
   13.2250   18.7660   19.8070   C 0  0  0  0  0  0  0  0  0  0  0  0
   12.1150   17.8910   20.0360   C 0  0  0  0  0  0  0  0  0  0  0  0
   14.2760   18.9230   20.9010   C 0  0  0  0  0  0  0  0  0  0  0  0
   14.4410   20.3890   18.2340   C 0  0  0  0  0  0  0  0  0  0  0  0
   12.0080   17.2060   21.2310   O 0  0  0  0  0  0  0  0  0  0  0  0
   15.6250   20.0630   18.3350   O 0  0  0  0  0  0  0  0  0  0  0  0
   16.2980   24.7030   18.4790   C 0  0  0  0  0  0  0  0  0  0  0  0
   14.1020   21.6370   17.8070   N 0  0  0  0  0  0  0  0  0  0  0  0
   16.3070   25.8310   18.0080   O 0  0  0  0  0  0  0  0  0  0  0  0
   15.0360   23.8360   18.2440   C 0  0  0  0  0  0  0  0  0  0  0  0
   14.1780   22.0340   14.9940   C 0  0  0  0  0  0  0  0  0  0  0  0
   15.1250   22.8580   15.8140   C 0  0  0  0  0  0  0  0  0  0  0  0
   12.4840   20.3920   13.4020   C 0  0  0  0  0  0  0  0  0  0  0  0
   15.1130   22.5980   17.3450   C 0  0  0  0  0  0  0  0  0  0  0  0
   13.8140   24.2040   18.7960   O 0  0  0  0  0  0  0  0  0  0  0  0
   14.7280   21.0530   14.1260   C 0  0  0  0  0  0  0  0  0  0  0  0
   12.7660   22.1920   15.0600   C 0  0  0  0  0  0  0  0  0  0  0  0
   13.8870   20.2300   13.3280   C 0  0  0  0  0  0  0  0  0  0  0  0
   11.9240   21.3750   14.2680   C 0  0  0  0  0  0  0  0  0  0  0  0
   19.1420   24.5590   17.3600   C 0  0  0  0  0  0  0  0  0  0  0  0
   17.4370   24.0970   19.0340   N 0  0  0  0  0  0  0  0  0  0  0  0
   18.9120   23.4900   16.7830   O 0  0  0  0  0  0  0  0  0  0  0  0
   18.7480   24.7560   18.8690   C 0  0  0  0  0  0  0  0  0  0  0  0
   19.7330   24.1200   19.9070   C 0  0  0  0  0  0  0  0  0  0  0  0
   17.5020   22.7580   19.6830   C 0  0  0  0  0  0  0  0  0  0  0  0
   19.6190   24.7670   21.3030   C 0  0  0  0  0  0  0  0  0  0  0  0
   21.2030   24.1520   19.4270   C 0  0  0  0  0  0  0  0  0  0  0  0
   19.2360   22.4060   20.0420   S 0  0  0  0  0  0  0  0  0  0  0  0
   19.7290   25.6700   16.7930   N 0  0  0  0  0  0  0  0  0  0  0  0
   20.2020   25.8120   15.3920   C 0  0  0  0  0  0  0  0  0  0  0  0
   20.7570   27.2410   15.2750   C 0  0  0  0  0  0  0  0  0  0  0  0
   19.0310   25.6220   14.4000   C 0  0  0  0  0  0  0  0  0  0  0  0
   21.3410   24.8010   15.0940   C 0  0  0  0  0  0  0  0  0  0  0  0
  1  2  2  0  0  0  0
  1  6  1  0  0  0  0
  2  3  1  0  0  0  0
  3  4  2  0  0  0  0
  4  5  1  0  0  0  0
  4  8  1  0  0  0  0
  5  6  2  0  0  0  0
  5  7  1  0  0  0  0
  6  9  1  0  0  0  0
  8 12  1  0  0  0  0
  8 10  2  0  0  0  0
 12 18  1  0  0  0  0
 18 16  1  0  0  0  0
 18 14  1  0  0  0  0
 16 15  1  0  0  0  0
 14 11  1  0  0  0  0
 14 19  1  0  0  0  0
 11 25  1  0  0  0  0
 11 13  2  0  0  0  0
 25 27  1  0  0  0  0
 25 29  1  0  0  0  0
 27 28  1  0  0  0  0
 27 24  1  0  0  0  0
 28 32  1  0  0  0  0
 28 30  1  0  0  0  0
 28 31  1  0  0  0  0
 32 29  1  0  0  0  0
 15 20  2  0  0  0  0
 15 21  1  0  0  0  0
 20 22  1  0  0  0  0
 22 17  2  0  0  0  0
 17 23  1  0  0  0  0
 23 21  2  0  0  0  0
 24 33  1  0  0  0  0
 24 26  2  0  0  0  0
 33 34  1  0  0  0  0
 34 35  1  0  0  0  0
 34 36  1  0  0  0  0
 34 37  1  0  0  0  0
M  END
>  <InstanceId>
1MRW_K57_A_1001

>  <ChemCompId>
K57

>  <PdbId>
1MRW

>  <ChainId>
A

>  <ResidueNumber>
1001

>  <InsertionCode>


>  <Model>
1

>  <AltIds>


>  <MissingHeavyAtoms>
0

>  <ObservedFormula>
C28 N3 O5 S

>  <Name>
(4R)-N-tert-butyl-3-{(2S,3S)-2-hydroxy-3-[(3-hydroxy-2-methylbenzoyl)amino]-4-phenylbutanoyl}-5,5-dimethyl-1,3-thiazoli dine-4-carboxamide

>  <SystematicName>
(4R)-N-tert-butyl-3-[(3S)-2-hydroxy-3-[(3-hydroxy-2-methyl-phenyl)carbonylamino]-4-phenyl-butanoyl]-5,5-dimethyl-1,3-thiazolidine-4-carboxamide

>  <Synonyms>
KNI-577

>  <Type>
peptide-like

>  <Formula>
C28 H37 N3 O5 S

>  <MolecularWeight>
527.675

>  <ModifiedDate>
2020-06-17

>  <Parent>


>  <OneLetterCode>


>  <SubcomponentList>
PF0 005 00B NTB

>  <AmbiguousFlag>
N

>  <InChI>
InChI=1S/C28H37N3O5S/c1-17-19(13-10-14-21(17)32)24(34)29-20(15-18-11-8-7-9-12-18)22(33)26(36)31-16-37-28(5,6)23(31)25(35)30-27(2,3)4/h7-14,20,22-23,32-33H,15-16H2,1-6H3,(H,29,34)(H,30,35)/t20-,22-,23+/m0/s1

>  <InChIKey>
CGFVYUGIPISJQG-ACIOBRDBSA-N

>  <SMILES>
Cc1c(cccc1O)C(=O)N[C@@H](Cc2ccccc2)C(C(=O)N3CSC([C@H]3C(=O)NC(C)(C)C)(C)C)O

$$$$
