2Y82_930_A_1245
  RCSB PDB08012018213D
Coordinates from PDB:2Y82:A:1245 Model:1 without hydrogens
 33 37  0  0  0  0            999 V2000
    7.7360    5.5870   19.5210   F 0  0  0  0  0  0  0  0  0  0  0  0
    7.6020    4.3080   19.8650   C 0  0  0  0  0  0  0  0  0  0  0  0
    6.8360    3.9470   20.9780   C 0  0  0  0  0  0  0  0  0  0  0  0
    6.7570    2.5790   21.2810   C 0  0  0  0  0  0  0  0  0  0  0  0
    7.4110    1.6370   20.4870   C 0  0  0  0  0  0  0  0  0  0  0  0
    8.1680    2.0200   19.3810   C 0  0  0  0  0  0  0  0  0  0  0  0
    8.8430    0.9750   18.5220   C 0  0  0  0  0  0  0  0  0  0  0  0
   10.1000    1.4860   17.8060   C 0  0  0  0  0  0  0  0  0  0  0  0
    9.6210    1.8670   16.4020   C 0  0  0  0  0  0  0  0  0  0  0  0
    8.1870    1.3290   16.2860   C 0  0  0  0  0  0  0  0  0  0  0  0
    7.9630    0.4720   17.4550   N 0  0  0  0  0  0  0  0  0  0  0  0
    8.2510    3.3830   19.0720   C 0  0  0  0  0  0  0  0  0  0  0  0
    6.1580    4.8930   21.8160   N 0  0  0  0  0  0  0  0  0  0  0  0
    6.7280    6.0210   22.3140   C 0  0  0  0  0  0  0  0  0  0  0  0
    7.8450    6.4440   22.0590   O 0  0  0  0  0  0  0  0  0  0  0  0
    5.7370    6.6930   23.2730   C 0  0  0  0  0  0  0  0  0  0  0  0
    4.4100    6.0840   22.8520   C 0  0  0  0  0  0  0  0  0  0  0  0
    4.7750    4.7340   22.2470   C 0  0  0  0  0  0  0  0  0  0  0  0
    5.7660    8.1440   23.1460   N 0  0  0  0  0  0  0  0  0  0  0  0
    6.2570    9.1120   24.3470   S 0  0  0  0  0  0  0  0  0  0  0  0
    6.2370   10.3900   23.7210   O 0  0  0  0  0  0  0  0  0  0  0  0
    5.5100    8.8960   25.5530   O 0  0  0  0  0  0  0  0  0  0  0  0
    7.9560    8.7830   24.7060   C 0  0  0  0  0  0  0  0  0  0  0  0
    8.8890    9.2380   23.7590   C 0  0  0  0  0  0  0  0  0  0  0  0
   10.2460    9.0280   23.9970   C 0  0  0  0  0  0  0  0  0  0  0  0
   10.6470    8.3690   25.1760   C 0  0  0  0  0  0  0  0  0  0  0  0
    9.6940    7.9120   26.1250   C 0  0  0  0  0  0  0  0  0  0  0  0
    8.3180    8.1390   25.8670   C 0  0  0  0  0  0  0  0  0  0  0  0
   12.0040    8.1520   25.4120   C 0  0  0  0  0  0  0  0  0  0  0  0
   12.3950    7.5090   26.5810   C 0  0  0  0  0  0  0  0  0  0  0  0
   14.1010    7.2880   26.7970  Cl 0  0  0  0  0  0  0  0  0  0  0  0
   11.4610    7.0520   27.5330   C 0  0  0  0  0  0  0  0  0  0  0  0
   10.1230    7.2560   27.3090   C 0  0  0  0  0  0  0  0  0  0  0  0
  1  2  1  0  0  0  0
  2  3  1  0  0  0  0
  2 12  2  0  0  0  0
  3  4  2  0  0  0  0
  3 13  1  0  0  0  0
  4  5  1  0  0  0  0
  5  6  2  0  0  0  0
  6  7  1  0  0  0  0
  6 12  1  0  0  0  0
  7  8  1  0  0  0  0
  7 11  1  0  0  0  0
  8  9  1  0  0  0  0
  9 10  1  0  0  0  0
 10 11  1  0  0  0  0
 13 14  1  0  0  0  0
 13 18  1  0  0  0  0
 14 15  2  0  0  0  0
 14 16  1  0  0  0  0
 16 17  1  0  0  0  0
 16 19  1  0  0  0  0
 17 18  1  0  0  0  0
 19 20  1  0  0  0  0
 20 21  2  0  0  0  0
 20 22  2  0  0  0  0
 20 23  1  0  0  0  0
 23 24  1  0  0  0  0
 23 28  2  0  0  0  0
 24 25  2  0  0  0  0
 25 26  1  0  0  0  0
 26 27  2  0  0  0  0
 26 29  1  0  0  0  0
 27 28  1  0  0  0  0
 27 33  1  0  0  0  0
 29 30  2  0  0  0  0
 30 31  1  0  0  0  0
 30 32  1  0  0  0  0
 32 33  2  0  0  0  0
M  END
>  <InstanceId>
2Y82_930_A_1245

>  <ChemCompId>
930

>  <PdbId>
2Y82

>  <ChainId>
A

>  <ResidueNumber>
1245

>  <InsertionCode>


>  <Model>
1

>  <AltIds>


>  <MissingHeavyAtoms>
0

>  <ObservedFormula>
C24 N3 O3 S F Cl

>  <Name>
6-CHLORO-N-((3S)-2-OXO-1-{4-[(2S)-2-PYRROLIDINYL]PHENYL}-3-PYRROLIDINYL)-2-NAPHTHALENESULFONAMIDE

>  <SystematicName>
6-chloro-N-[(3S)-1-[2-fluoro-4-[(2S)-pyrrolidin-2-yl]phenyl]-2-oxo-pyrrolidin-3-yl]naphthalene-2-sulfonamide

>  <Synonyms>


>  <Type>
non-polymer

>  <Formula>
C24 H23 Cl F N3 O3 S

>  <MolecularWeight>
487.974

>  <ModifiedDate>
2011-06-04

>  <Parent>


>  <OneLetterCode>


>  <SubcomponentList>


>  <AmbiguousFlag>
N

>  <InChI>
InChI=1S/C24H23ClFN3O3S/c25-18-6-3-16-13-19(7-4-15(16)12-18)33(31,32)28-22-9-11-29(24(22)30)23-8-5-17(14-20(23)26)21-2-1-10-27-21/h3-8,12-14,21-22,27-28H,1-2,9-11H2/t21-,22-/m0/s1

>  <InChIKey>
OKMBULRSJZKGQF-VXKWHMMOSA-N

>  <SMILES>
c1cc(cc2c1cc(cc2)Cl)S(=O)(=O)N[C@H]3CCN(C3=O)c4ccc(cc4F)[C@@H]5CCCN5

$$$$
