5TP0_BRN_A_306
  RCSB PDB08022003063D
Coordinates from PDB:5TP0:A:306 Model:1 without hydrogens
 11 11  0  0  0  0            999 V2000
    3.9250   -3.8360  -12.0270   C 0  0  0  0  0  0  0  0  0  0  0  0
    4.7150   -3.2890  -11.0820   C 0  0  0  0  0  0  0  0  0  0  0  0
    4.4250   -3.2950   -9.7540   C 0  0  0  0  0  0  0  0  0  0  0  0
    3.1740   -3.7280   -9.3300   C 0  0  0  0  0  0  0  0  0  0  0  0
    2.2930   -4.2520  -10.2430   C 0  0  0  0  0  0  0  0  0  0  0  0
    2.6780   -4.3210  -11.6030   C 0  0  0  0  0  0  0  0  0  0  0  0
    2.7630   -3.6380   -7.9320   C 0  0  0  0  0  0  0  0  0  0  0  0
    1.4970   -3.9420   -7.5620   N 0  0  0  0  0  0  0  0  0  0  0  0
    3.6120   -3.2850   -7.0280   N 0  0  0  0  0  0  0  0  0  0  0  0
    4.3410   -3.8920  -13.2990   N 0  0  0  0  0  0  0  0  0  0  0  0
    3.3260   -4.0150  -14.1250   N 0  0  0  0  0  0  0  0  0  0  0  0
  1  2  2  0  0  0  0
  1  6  1  0  0  0  0
  1 10  1  0  0  0  0
  2  3  1  0  0  0  0
  3  4  2  0  0  0  0
  4  5  1  0  0  0  0
  4  7  1  0  0  0  0
  5  6  2  0  0  0  0
  7  8  2  0  0  0  0
  7  9  1  0  0  0  0
 10 11  1  0  0  0  0
M  END
>  <InstanceId>
5TP0_BRN_A_306

>  <ChemCompId>
BRN

>  <PdbId>
5TP0

>  <ChainId>
A

>  <ResidueNumber>
306

>  <InsertionCode>


>  <Model>
1

>  <AltIds>


>  <MissingHeavyAtoms>
10

>  <ObservedFormula>
C7 N4

>  <Name>
BERENIL

>  <SystematicName>
4-[(2E)-2-(4-carbamimidoylphenyl)iminohydrazinyl]benzenecarboximidamide

>  <Synonyms>
DIMINAZINE ACETURATE; 1,3-TRIS-(4'AMIDINOPHENYL)TRIAZINE

>  <Type>
NON-POLYMER

>  <Formula>
C14 H15 N7

>  <MolecularWeight>
281.316

>  <ModifiedDate>
2020-06-17

>  <Parent>


>  <OneLetterCode>


>  <SubcomponentList>


>  <AmbiguousFlag>
N

>  <InChI>
InChI=1S/C14H15N7/c15-13(16)9-1-5-11(6-2-9)19-21-20-12-7-3-10(4-8-12)14(17)18/h1-8H,(H3,15,16)(H3,17,18)(H,19,20)

>  <InChIKey>
XNYZHCFCZNMTFY-UHFFFAOYSA-N

>  <SMILES>
c1cc(ccc1C(=N)N)N/N=N/c2ccc(cc2)C(=N)N

$$$$
