6GZM_LCI_A_1004
  RCSB PDB08022004543D
Coordinates from PDB:6GZM:A:1004 Model:1 without hydrogens
 25 28  0  0  0  0            999 V2000
    4.2620    0.6010   19.0310   F 0  0  0  0  0  0  0  0  0  0  0  0
    3.4850    1.4030   18.3280   C 0  0  0  0  0  0  0  0  0  0  0  0
    2.8840    0.8730   17.2020   C 0  0  0  0  0  0  0  0  0  0  0  0
    2.0410    1.6080   16.3820   N 0  0  0  0  0  0  0  0  0  0  0  0
    3.2800    2.7230   18.6930   C 0  0  0  0  0  0  0  0  0  0  0  0
    2.4140    3.4520   17.8880   N 0  0  0  0  0  0  0  0  0  0  0  0
    1.8040    2.9190   16.7670   C 0  0  0  0  0  0  0  0  0  0  0  0
    0.9330    3.6840   15.9980   N 0  0  0  0  0  0  0  0  0  0  0  0
    0.4720    4.9970   16.4560   C 0  0  0  0  0  0  0  0  0  0  0  0
   -0.0770    5.7550   15.2460   C 0  0  0  0  0  0  0  0  0  0  0  0
   -0.6020    7.1380   15.6820   C 0  0  0  0  0  0  0  0  0  0  0  0
   -0.6340    4.8580   17.5290   C 0  0  0  0  0  0  0  0  0  0  0  0
   -1.2320    6.2170   17.9540   C 0  0  0  0  0  0  0  0  0  0  0  0
   -1.7290    7.0070   16.7250   C 0  0  0  0  0  0  0  0  0  0  0  0
   -2.1810    8.3560   17.1450   N 0  3  0  0  0  0  0  0  0  0  0  0
    3.8120    3.3450   19.9310   C 0  0  0  0  0  0  0  0  0  0  0  0
    4.7960    2.8070   20.7610   C 0  0  0  0  0  0  0  0  0  0  0  0
    4.9120    3.6250   21.8090   N 0  0  0  0  0  0  0  0  0  0  0  0
    4.1210    4.5860   21.7100   N 0  0  0  0  0  0  0  0  0  0  0  0
    4.0750    5.6200   22.7550   C 0  0  0  0  0  0  0  0  0  0  0  0
    3.3880    4.4920   20.5790   C 0  0  0  0  0  0  0  0  0  0  0  0
    2.2980    5.4930   20.1640   C 0  0  0  0  0  0  0  0  0  0  0  0
    2.8840    6.4730   19.1300   C 0  0  0  0  0  0  0  0  0  0  0  0
    3.4620    7.7400   19.7770   C 0  0  0  0  0  0  0  0  0  0  0  0
    2.0880    7.7670   19.1190   C 0  0  0  0  0  0  0  0  0  0  0  0
 15 14  1  0  0  0  0
 14 11  1  0  0  0  0
 14 13  1  0  0  0  0
 11 10  1  0  0  0  0
 10  9  1  0  0  0  0
 13 12  1  0  0  0  0
 12  9  1  0  0  0  0
  9  8  1  0  0  0  0
  8  7  1  0  0  0  0
  7  4  2  0  0  0  0
  7  6  1  0  0  0  0
  4  3  1  0  0  0  0
  6  5  2  0  0  0  0
  3  2  2  0  0  0  0
 22 23  1  0  0  0  0
 22 21  1  0  0  0  0
 24 23  1  0  0  0  0
 24 25  1  0  0  0  0
  5  2  1  0  0  0  0
  5 16  1  0  0  0  0
 23 25  1  0  0  0  0
  2  1  1  0  0  0  0
 21 16  2  0  0  0  0
 21 19  1  0  0  0  0
 16 17  1  0  0  0  0
 19 20  1  0  0  0  0
 19 18  1  0  0  0  0
 17 18  2  0  0  0  0
M  CHG  1  15   1
M  END
>  <InstanceId>
6GZM_LCI_A_1004

>  <ChemCompId>
LCI

>  <PdbId>
6GZM

>  <ChainId>
A

>  <ResidueNumber>
1004

>  <InsertionCode>


>  <Model>
1

>  <AltIds>


>  <MissingHeavyAtoms>
0

>  <ObservedFormula>
C18 N6 F

>  <Name>
[4-[[4-[5-(cyclopropylmethyl)-1-methyl-pyrazol-4-yl]-5-fluoranyl-pyrimidin-2-yl]amino]cyclohexyl]azanium

>  <SystematicName>
[4-[[4-[5-(cyclopropylmethyl)-1-methyl-pyrazol-4-yl]-5-fluoranyl-pyrimidin-2-yl]amino]cyclohexyl]azanium

>  <Synonyms>


>  <Type>
NON-POLYMER

>  <Formula>
C18 H26 F N6

>  <MolecularWeight>
345.438

>  <ModifiedDate>
2018-08-24

>  <Parent>


>  <OneLetterCode>


>  <SubcomponentList>


>  <AmbiguousFlag>
N

>  <InChI>
InChI=1S/C18H25FN6/c1-25-16(8-11-2-3-11)14(9-22-25)17-15(19)10-21-18(24-17)23-13-6-4-12(20)5-7-13/h9-13H,2-8,20H2,1H3,(H,21,23,24)/p+1/t12-,13-

>  <InChIKey>
YSPIHUWHLMNFOV-JOCQHMNTSA-O

>  <SMILES>
Cn1c(c(cn1)c2c(cnc(n2)NC3CCC(CC3)[NH3+])F)CC4CC4

$$$$
