4WN5_MVC_A_402
  RCSB PDB08022000113D
Coordinates from PDB:4WN5:A:402 Model:1 without hydrogens
 25 24  0  0  0  0            999 V2000
    7.0790  -28.3170  -10.4790   C 0  0  0  0  0  0  0  0  0  0  0  0
   12.9600  -25.2450   -5.2000   C 0  0  0  0  0  0  0  0  0  0  0  0
   13.1860  -25.9360   -3.8500   C 0  0  0  0  0  0  0  0  0  0  0  0
    7.9480  -27.1160  -10.1850   C 0  0  0  0  0  0  0  0  0  0  0  0
   12.7990  -26.2340   -6.3520   C 0  0  0  0  0  0  0  0  0  0  0  0
   14.4980  -26.7420   -3.7950   C 0  0  0  0  0  0  0  0  0  0  0  0
   12.6230  -31.7200    3.0880   C 0  0  0  0  0  0  0  0  0  0  0  0
    9.3930  -27.4600   -9.9400   C 0  0  0  0  0  0  0  0  0  0  0  0
   12.5010  -25.5750   -7.7060   C 0  0  0  0  0  0  0  0  0  0  0  0
   14.8650  -27.2420   -2.3860   C 0  0  0  0  0  0  0  0  0  0  0  0
   10.3600  -26.2800   -9.8990   C 0  0  0  0  0  0  0  0  0  0  0  0
   11.0620  -25.0530   -7.7310   C 0  0  0  0  0  0  0  0  0  0  0  0
   13.7760  -28.1660   -1.8200   C 0  0  0  0  0  0  0  0  0  0  0  0
   10.1390  -25.3780   -8.6820   C 0  0  0  0  0  0  0  0  0  0  0  0
   14.1620  -28.7520   -0.4700   C 0  0  0  0  0  0  0  0  0  0  0  0
   13.0550  -29.6170    0.0810   C 0  0  0  0  0  0  0  0  0  0  0  0
   11.6290  -33.5600    4.4670   C 0  0  0  0  0  0  0  0  0  0  0  0
   11.7250  -32.9440    3.0980   C 0  0  0  0  0  0  0  0  0  0  0  0
   14.2960  -29.8620    2.1290   O 0  0  0  0  0  0  0  0  0  0  0  0
   13.3150  -30.1100    1.4870   C 0  0  0  0  0  0  0  0  0  0  0  0
   12.4760  -31.1720    1.7830   O 0  0  0  0  0  0  0  0  0  0  0  0
   12.2090  -33.9010    2.1870   O 0  0  0  0  0  0  0  0  0  0  0  0
   12.9050  -34.0700    4.8000   O 0  0  0  0  0  0  0  0  0  0  0  0
    5.6040  -28.0460  -10.5680   C 0  0  0  0  0  0  0  0  0  0  0  0
    4.8350  -29.2790  -10.9560   C 0  0  0  0  0  0  0  0  0  0  0  0
  5  2  1  0  0  0  0
  5  9  1  0  0  0  0
  2  3  1  0  0  0  0
  1  4  1  0  0  0  0
  9 12  1  0  0  0  0
  3  6  1  0  0  0  0
  7 18  1  0  0  0  0
  7 21  1  0  0  0  0
  4  8  1  0  0  0  0
 12 14  2  0  0  0  0
  6 10  1  0  0  0  0
  8 11  1  0  0  0  0
 14 11  1  0  0  0  0
 10 13  1  0  0  0  0
 13 15  1  0  0  0  0
 15 16  1  0  0  0  0
 16 20  1  0  0  0  0
 17 18  1  0  0  0  0
 17 23  1  0  0  0  0
 18 22  1  0  0  0  0
 19 20  2  0  0  0  0
 21 20  1  0  0  0  0
  1 24  1  0  0  0  0
 24 25  1  0  0  0  0
M  END
>  <InstanceId>
4WN5_MVC_A_402

>  <ChemCompId>
MVC

>  <PdbId>
4WN5

>  <ChainId>
A

>  <ResidueNumber>
402

>  <InsertionCode>


>  <Model>
1

>  <AltIds>


>  <MissingHeavyAtoms>
0

>  <ObservedFormula>
C21 O4

>  <Name>
MONOVACCENIN

>  <SystematicName>
[(2R)-2,3-bis(oxidanyl)propyl] (Z)-octadec-11-enoate

>  <Synonyms>
11.7 MAG

>  <Type>
non-polymer

>  <Formula>
C21 H40 O4

>  <MolecularWeight>
356.54

>  <ModifiedDate>
2014-04-16

>  <Parent>


>  <OneLetterCode>


>  <SubcomponentList>


>  <AmbiguousFlag>
N

>  <InChI>
InChI=1S/C21H40O4/c1-2-3-4-5-6-7-8-9-10-11-12-13-14-15-16-17-21(24)25-19-20(23)18-22/h7-8,20,22-23H,2-6,9-19H2,1H3/b8-7-/t20-/m1/s1

>  <InChIKey>
KJHYUSLWTPMFTN-WHXUGTBJSA-N

>  <SMILES>
CCCCCC/C=C\CCCCCCCCCC(=O)OC[C@@H](CO)O

$$$$
