5MPK_0BC_A_1201
  RCSB PDB08022002243D
Coordinates from PDB:5MPK:A:1201 Model:1 without hydrogens
 31 34  0  0  0  0            999 V2000
   25.1450  -24.8280  -13.6130   C 0  0  0  0  0  0  0  0  0  0  0  0
   20.1450  -17.9220  -11.6520   C 0  0  0  0  0  0  0  0  0  0  0  0
   21.9740  -21.1630  -10.9040   C 0  0  0  0  0  0  0  0  0  0  0  0
   22.7950  -22.0700  -11.5670   C 0  0  0  0  0  0  0  0  0  0  0  0
   21.4090  -20.3400  -22.8300   C 0  0  0  0  0  0  0  0  0  0  0  0
   20.5070  -20.5670  -20.5120   C 0  0  0  0  0  0  0  0  0  0  0  0
   22.0830  -20.1920  -18.2360   C 0  0  0  0  0  0  0  0  0  0  0  0
   24.1170  -19.3660  -17.2760   C 0  0  0  0  0  0  0  0  0  0  0  0
   23.8140  -19.3660  -19.6780   C 0  0  0  0  0  0  0  0  0  0  0  0
   21.9020  -19.7840  -12.8860   C 0  0  0  0  0  0  0  0  0  0  0  0
   24.4820  -23.7550  -12.7460   C 0  0  0  0  0  0  0  0  0  0  0  0
   20.6910  -19.1200  -10.8710   C 0  0  0  0  0  0  0  0  0  0  0  0
   22.3070  -20.1990  -15.8210   C 0  0  0  0  0  0  0  0  0  0  0  0
   21.5100  -20.0200  -11.5610   C 0  0  0  0  0  0  0  0  0  0  0  0
   22.8580  -19.9430  -17.1040   C 0  0  0  0  0  0  0  0  0  0  0  0
   22.5490  -19.9230  -19.5170   C 0  0  0  0  0  0  0  0  0  0  0  0
   24.5990  -19.0850  -18.5670   C 0  0  0  0  0  0  0  0  0  0  0  0
   21.7930  -20.1860  -20.5940   C 0  0  0  0  0  0  0  0  0  0  0  0
   22.7400  -20.6870  -13.5580   C 0  0  0  0  0  0  0  0  0  0  0  0
   23.1920  -21.8230  -12.8830   C 0  0  0  0  0  0  0  0  0  0  0  0
   25.8040  -18.5440  -18.7710   C 0  0  0  0  0  0  0  0  0  0  0  0
   22.2790  -20.0570  -21.8470   N 0  0  0  0  0  0  0  0  0  0  0  0
   27.6590  -17.6460  -18.4440   N 0  0  0  0  0  0  0  0  0  0  0  0
   26.6370  -18.1050  -17.8320   N 0  0  0  0  0  0  0  0  0  0  0  0
   26.3500  -18.3180  -19.9650   N 0  0  0  0  0  0  0  0  0  0  0  0
   23.1780  -20.5010  -14.8310   N 0  0  0  0  0  0  0  0  0  0  0  0
   27.4810  -17.7830  -19.7590   N 0  0  0  0  0  0  0  0  0  0  0  0
   20.4320  -19.2430   -9.6700   O 0  0  0  0  0  0  0  0  0  0  0  0
   21.0850  -20.0670  -15.6410   O 0  0  0  0  0  0  0  0  0  0  0  0
   24.0150  -22.6780  -13.5700   O 0  0  0  0  0  0  0  0  0  0  0  0
   19.9610  -20.7550  -22.1030   S 0  0  0  0  0  0  0  0  0  0  0  0
  5 31  1  0  0  0  0
  5 22  2  0  0  0  0
 31  6  1  0  0  0  0
 22 18  1  0  0  0  0
 18  6  2  0  0  0  0
 18 16  1  0  0  0  0
 25 27  2  0  0  0  0
 25 21  1  0  0  0  0
 27 23  1  0  0  0  0
  9 16  2  0  0  0  0
  9 17  1  0  0  0  0
 16  7  1  0  0  0  0
 21 17  1  0  0  0  0
 21 24  2  0  0  0  0
 17  8  2  0  0  0  0
 23 24  1  0  0  0  0
  7 15  2  0  0  0  0
  8 15  1  0  0  0  0
 15 13  1  0  0  0  0
 13 29  2  0  0  0  0
 13 26  1  0  0  0  0
 26 19  1  0  0  0  0
  1 11  1  0  0  0  0
 30 20  1  0  0  0  0
 30 11  1  0  0  0  0
 19 10  2  0  0  0  0
 19 20  1  0  0  0  0
 10 14  1  0  0  0  0
 20  4  2  0  0  0  0
  2 12  1  0  0  0  0
  4  3  1  0  0  0  0
 14  3  2  0  0  0  0
 14 12  1  0  0  0  0
 12 28  2  0  0  0  0
M  END
>  <InstanceId>
5MPK_0BC_A_1201

>  <ChemCompId>
0BC

>  <PdbId>
5MPK

>  <ChainId>
A

>  <ResidueNumber>
1201

>  <InsertionCode>


>  <Model>
1

>  <AltIds>


>  <MissingHeavyAtoms>
0

>  <ObservedFormula>
C21 N6 O3 S

>  <Name>
~{N}-(5-ethanoyl-2-ethoxy-phenyl)-3-(2~{H}-1,2,3,4-tetrazol-5-yl)-5-(1,3-thiazol-4-yl)benzamide

>  <SystematicName>
~{N}-(5-ethanoyl-2-ethoxy-phenyl)-3-(2~{H}-1,2,3,4-tetrazol-5-yl)-5-(1,3-thiazol-4-yl)benzamide

>  <Synonyms>


>  <Type>
NON-POLYMER

>  <Formula>
C21 H18 N6 O3 S

>  <MolecularWeight>
434.471

>  <ModifiedDate>
2018-01-12

>  <Parent>


>  <OneLetterCode>


>  <SubcomponentList>


>  <AmbiguousFlag>
N

>  <InChI>
InChI=1S/C21H18N6O3S/c1-3-30-19-5-4-13(12(2)28)9-17(19)23-21(29)16-7-14(18-10-31-11-22-18)6-15(8-16)20-24-26-27-25-20/h4-11H,3H2,1-2H3,(H,23,29)(H,24,25,26,27)

>  <InChIKey>
BCRZPXIIINLQPD-UHFFFAOYSA-N

>  <SMILES>
CCOc1ccc(cc1NC(=O)c2cc(cc(c2)c3n[nH]nn3)c4cscn4)C(=O)C

$$$$
