3PB9_1BN_X_390
  RCSB PDB08012020073D
Coordinates from PDB:3PB9:X:390 Model:1 without hydrogens
 12 13  0  0  0  0            999 V2000
    8.6630   11.9590  -14.6690   C 0  0  0  0  0  0  0  0  0  0  0  0
    8.3320   12.0650  -13.3690   C 0  0  0  0  0  0  0  0  0  0  0  0
    8.9190   13.1740  -15.1450   N 0  0  0  0  0  0  0  0  0  0  0  0
    8.7760   14.0350  -14.1160   C 0  0  0  0  0  0  0  0  0  0  0  0
    8.3840   13.3990  -13.0380   N 0  0  0  0  0  0  0  0  0  0  0  0
    9.4620   13.4600  -16.5180   C 0  0  0  0  0  0  0  0  0  0  0  0
    8.6620   14.4450  -17.2510   C 0  0  0  0  0  0  0  0  0  0  0  0
    7.3100   14.4530  -17.2390   C 0  0  0  0  0  0  0  0  0  0  0  0
    9.3770   15.3400  -18.0310   C 0  0  0  0  0  0  0  0  0  0  0  0
    6.5680   15.3750  -17.9880   C 0  0  0  0  0  0  0  0  0  0  0  0
    8.7020   16.3220  -18.7500   C 0  0  0  0  0  0  0  0  0  0  0  0
    7.2940   16.3020  -18.6880   C 0  0  0  0  0  0  0  0  0  0  0  0
  1  2  2  0  0  0  0
  1  3  1  0  0  0  0
  2  5  1  0  0  0  0
  3  4  1  0  0  0  0
  3  6  1  0  0  0  0
  4  5  2  0  0  0  0
  6  7  1  0  0  0  0
  7  8  2  0  0  0  0
  7  9  1  0  0  0  0
  8 10  1  0  0  0  0
  9 11  2  0  0  0  0
 10 12  2  0  0  0  0
 11 12  1  0  0  0  0
M  END
>  <InstanceId>
3PB9_1BN_X_390

>  <ChemCompId>
1BN

>  <PdbId>
3PB9

>  <ChainId>
X

>  <ResidueNumber>
390

>  <InsertionCode>


>  <Model>
1

>  <AltIds>


>  <MissingHeavyAtoms>
0

>  <ObservedFormula>
C10 N2

>  <Name>
1-BENZYL-1H-IMIDAZOLE

>  <SystematicName>
1-(phenylmethyl)imidazole

>  <Synonyms>
1-BENZYLIMIDAZOLE

>  <Type>
NON-POLYMER

>  <Formula>
C10 H10 N2

>  <MolecularWeight>
158.2

>  <ModifiedDate>
2011-06-04

>  <Parent>


>  <OneLetterCode>


>  <SubcomponentList>


>  <AmbiguousFlag>
N

>  <InChI>
InChI=1S/C10H10N2/c1-2-4-10(5-3-1)8-12-7-6-11-9-12/h1-7,9H,8H2

>  <InChIKey>
KKKDZZRICRFGSD-UHFFFAOYSA-N

>  <SMILES>
c1ccc(cc1)Cn2ccnc2

$$$$
