4Q08_V90_A_305
  RCSB PDB08012022563D
Coordinates from PDB:4Q08:A:305 Model:1 without hydrogens
 26 27  0  0  0  0            999 V2000
   -2.8270    3.2430   12.8210   F 0  0  0  0  0  0  0  0  0  0  0  0
   -3.7020    3.2760   13.8130   C 0  0  0  0  0  0  0  0  0  0  0  0
   -4.2430    4.5600   14.0820   C 0  0  0  0  0  0  0  0  0  0  0  0
   -3.8110    5.9980   13.1800   S 0  0  0  0  0  0  0  0  0  0  0  0
   -2.4110    6.7160   14.0820   C 0  0  0  0  0  0  0  0  0  0  0  0
   -1.1810    5.9410   13.7210   C 0  0  0  0  0  0  0  0  0  0  0  0
   -0.5080    6.4750   12.6470   O 0  0  0  0  0  0  0  0  0  0  0  0
   -5.0340    4.6060   15.2870   C 0  0  0  0  0  0  0  0  0  0  0  0
   -5.5990    5.7410   15.6840   F 0  0  0  0  0  0  0  0  0  0  0  0
   -4.0750    2.1120   14.4580   C 0  0  0  0  0  0  0  0  0  0  0  0
   -4.9740    2.1890   15.5560   C 0  0  0  0  0  0  0  0  0  0  0  0
   -5.4810    0.8250   16.5570   S 0  0  0  0  0  0  0  0  0  0  0  0
   -6.9300    0.8520   16.4680   O 0  0  0  0  0  0  0  0  0  0  0  0
   -4.9230   -0.5320   15.9750   N 0  0  0  0  0  0  0  0  0  0  0  0
   -4.9160    1.0670   17.8840   O 0  0  0  0  0  0  0  0  0  0  0  0
   -5.4050    3.4160   15.9230   C 0  0  0  0  0  0  0  0  0  0  0  0
   -6.2320    3.5870   16.9730   F 0  0  0  0  0  0  0  0  0  0  0  0
   -3.5200    0.9190   13.9620   N 0  0  0  0  0  0  0  0  0  0  0  0
   -3.4750    0.5520   12.5790   C 0  0  0  0  0  0  0  0  0  0  0  0
   -3.4560   -0.9960   12.5540   C 0  0  0  0  0  0  0  0  0  0  0  0
   -2.1640   -1.3680   11.8620   C 0  0  0  0  0  0  0  0  0  0  0  0
   -2.3140   -1.3570   10.3040   C 0  0  0  0  0  0  0  0  0  0  0  0
   -2.3800    0.0620    9.7020   C 0  0  0  0  0  0  0  0  0  0  0  0
   -3.8560    0.4620    9.3760   C 0  0  0  0  0  0  0  0  0  0  0  0
   -4.2270    1.6040   10.3220   C 0  0  0  0  0  0  0  0  0  0  0  0
   -4.6210    1.1550   11.7550   C 0  0  0  0  0  0  0  0  0  0  0  0
 24 23  1  0  0  0  0
 24 25  1  0  0  0  0
 23 22  1  0  0  0  0
 22 21  1  0  0  0  0
  7  6  1  0  0  0  0
 25 26  1  0  0  0  0
  6  5  1  0  0  0  0
 21 20  1  0  0  0  0
 26 19  1  0  0  0  0
  5  4  1  0  0  0  0
 20 19  1  0  0  0  0
 19 18  1  0  0  0  0
  1  2  1  0  0  0  0
  4  3  1  0  0  0  0
  2  3  2  0  0  0  0
  2 10  1  0  0  0  0
 18 10  1  0  0  0  0
  3  8  1  0  0  0  0
 10 11  2  0  0  0  0
  8  9  1  0  0  0  0
  8 16  2  0  0  0  0
 11 16  1  0  0  0  0
 11 12  1  0  0  0  0
 14 12  1  0  0  0  0
 16 17  1  0  0  0  0
 13 12  2  0  0  0  0
 12 15  2  0  0  0  0
M  END
>  <InstanceId>
4Q08_V90_A_305

>  <ChemCompId>
V90

>  <PdbId>
4Q08

>  <ChainId>
A

>  <ResidueNumber>
305

>  <InsertionCode>


>  <Model>
1

>  <AltIds>


>  <MissingHeavyAtoms>
0

>  <ObservedFormula>
C16 N2 O3 S2 F3

>  <Name>
2-(cyclooctylamino)-3,5,6-trifluoro-4-[(2-hydroxyethyl)sulfanyl]benzenesulfonamide

>  <SystematicName>
2-(cyclooctylamino)-3,5,6-tris(fluoranyl)-4-(2-hydroxyethylsulfanyl)benzenesulfonamide

>  <Synonyms>


>  <Type>
NON-POLYMER

>  <Formula>
C16 H23 F3 N2 O3 S2

>  <MolecularWeight>
412.491

>  <ModifiedDate>
2015-01-23

>  <Parent>


>  <OneLetterCode>


>  <SubcomponentList>


>  <AmbiguousFlag>
N

>  <InChI>
InChI=1S/C16H23F3N2O3S2/c17-11-12(18)16(26(20,23)24)14(13(19)15(11)25-9-8-22)21-10-6-4-2-1-3-5-7-10/h10,21-22H,1-9H2,(H2,20,23,24)

>  <InChIKey>
ZUTOCUUMVDYVHW-UHFFFAOYSA-N

>  <SMILES>
C1CCCC(CCC1)Nc2c(c(c(c(c2S(=O)(=O)N)F)F)SCCO)F

$$$$
