3HUB_469_A_361
  RCSB PDB08012019153D
Coordinates from PDB:3HUB:A:361 Model:1 without hydrogens
 36 39  0  0  0  0            999 V2000
   23.3340    7.5090  -27.9140   C 0  0  0  0  0  0  0  0  0  0  0  0
   22.7820    8.6990  -27.1480   N 0  0  0  0  0  0  0  0  0  0  0  0
   23.3850   10.0280  -27.3800   C 0  0  0  0  0  0  0  0  0  0  0  0
   21.7490    8.5850  -26.2310   C 0  0  0  0  0  0  0  0  0  0  0  0
   21.3040    9.5420  -25.5950   O 0  0  0  0  0  0  0  0  0  0  0  0
   21.1240    7.1880  -25.8850   C 0  0  0  0  0  0  0  0  0  0  0  0
   21.5210    6.2570  -26.5740   O 0  0  0  0  0  0  0  0  0  0  0  0
   19.9110    6.9160  -24.9880   C 0  0  0  0  0  0  0  0  0  0  0  0
   19.4060    5.6500  -24.7460   C 0  0  0  0  0  0  0  0  0  0  0  0
   19.8400    4.3680  -25.0650   C 0  0  0  0  0  0  0  0  0  0  0  0
   19.0510    7.8340  -24.5030   C 0  0  0  0  0  0  0  0  0  0  0  0
   18.0400    7.1880  -23.9040   N 0  0  0  0  0  0  0  0  0  0  0  0
   16.9630    7.8460  -23.1960   C 0  0  0  0  0  0  0  0  0  0  0  0
   18.2150    5.8560  -24.0230   C 0  0  0  0  0  0  0  0  0  0  0  0
   17.4620    4.7540  -23.6110   C 0  0  0  0  0  0  0  0  0  0  0  0
   17.9070    3.4740  -23.9050   C 0  0  0  0  0  0  0  0  0  0  0  0
   16.9030    2.1580  -23.3790  Cl 0  0  0  0  0  0  0  0  0  0  0  0
   19.0930    3.2870  -24.6360   C 0  0  0  0  0  0  0  0  0  0  0  0
   19.6330    1.8900  -24.9520   C 0  0  0  0  0  0  0  0  0  0  0  0
   19.8200    1.5200  -26.0970   O 0  0  0  0  0  0  0  0  0  0  0  0
   19.9810    1.1290  -23.8830   N 0  0  0  0  0  0  0  0  0  0  0  0
   20.5040   -0.2380  -23.9710   C 0  0  0  0  0  0  0  0  0  0  0  0
   21.6810   -0.2880  -23.0430   C 0  0  0  0  0  0  0  0  0  0  0  0
   19.4290   -1.2350  -23.4520   C 0  0  0  0  0  0  0  0  0  0  0  0
   19.7190    1.6610  -22.4870   C 0  0  0  0  0  0  0  0  0  0  0  0
   20.8870    1.5350  -21.5500   C 0  0  0  0  0  0  0  0  0  0  0  0
   21.9300    2.5430  -22.0670   C 0  0  0  0  0  0  0  0  0  0  0  0
   21.2560    0.1040  -21.6760   N 0  0  0  0  0  0  0  0  0  0  0  0
   22.2790   -0.3190  -20.7460   C 0  0  0  0  0  0  0  0  0  0  0  0
   22.7890   -1.7770  -20.8740   C 0  0  0  0  0  0  0  0  0  0  0  0
   24.0910   -2.0300  -21.3830   C 0  0  0  0  0  0  0  0  0  0  0  0
   24.5500   -3.3550  -21.4390   C 0  0  0  0  0  0  0  0  0  0  0  0
   23.7280   -4.4150  -20.9840   C 0  0  0  0  0  0  0  0  0  0  0  0
   24.1680   -5.7040  -21.0340   F 0  0  0  0  0  0  0  0  0  0  0  0
   22.4350   -4.1580  -20.4980   C 0  0  0  0  0  0  0  0  0  0  0  0
   21.9670   -2.8330  -20.4280   C 0  0  0  0  0  0  0  0  0  0  0  0
  1  2  1  0  0  0  0
  3  2  1  0  0  0  0
  2  4  1  0  0  0  0
  4  6  1  0  0  0  0
  4  5  2  0  0  0  0
  7  6  2  0  0  0  0
  6  8  1  0  0  0  0
  8  9  1  0  0  0  0
  8 11  2  0  0  0  0
 10  9  1  0  0  0  0
  9 14  2  0  0  0  0
 10 18  2  0  0  0  0
 11 12  1  0  0  0  0
 14 12  1  0  0  0  0
 12 13  1  0  0  0  0
 14 15  1  0  0  0  0
 16 15  2  0  0  0  0
 18 16  1  0  0  0  0
 16 17  1  0  0  0  0
 19 18  1  0  0  0  0
 20 19  2  0  0  0  0
 19 21  1  0  0  0  0
 22 21  1  0  0  0  0
 21 25  1  0  0  0  0
 22 24  1  0  0  0  0
 22 23  1  0  0  0  0
 23 28  1  0  0  0  0
 25 26  1  0  0  0  0
 27 26  1  0  0  0  0
 28 26  1  0  0  0  0
 28 29  1  0  0  0  0
 30 29  1  0  0  0  0
 31 30  2  0  0  0  0
 30 36  1  0  0  0  0
 32 31  1  0  0  0  0
 32 33  2  0  0  0  0
 34 33  1  0  0  0  0
 33 35  1  0  0  0  0
 35 36  2  0  0  0  0
M  END
>  <InstanceId>
3HUB_469_A_361

>  <ChemCompId>
469

>  <PdbId>
3HUB

>  <ChainId>
A

>  <ResidueNumber>
361

>  <InsertionCode>


>  <Model>
1

>  <AltIds>


>  <MissingHeavyAtoms>
0

>  <ObservedFormula>
C27 N4 O3 F Cl

>  <Name>
2-(6-chloro-5-{[(2R,5S)-4-(4-fluorobenzyl)-2,5-dimethylpiperazin-1-yl]carbonyl}-1-methyl-1H-indol-3-yl)-N,N-dimethyl-2-oxoacetamide

>  <SystematicName>
2-[6-chloro-5-[(2R,4R,5S)-4-[(4-fluorophenyl)methyl]-2,5-dimethyl-piperazin-1-yl]carbonyl-1-methyl-indol-3-yl]-N,N-dimethyl-2-oxo-ethanamide

>  <Synonyms>


>  <Type>
NON-POLYMER

>  <Formula>
C27 H30 Cl F N4 O3

>  <MolecularWeight>
513.004

>  <ModifiedDate>
2011-06-04

>  <Parent>


>  <OneLetterCode>


>  <SubcomponentList>


>  <AmbiguousFlag>
N

>  <InChI>
InChI=1S/C27H30ClFN4O3/c1-16-13-33(17(2)12-32(16)14-18-6-8-19(29)9-7-18)26(35)21-10-20-22(25(34)27(36)30(3)4)15-31(5)24(20)11-23(21)28/h6-11,15-17H,12-14H2,1-5H3/t16-,17+/m0/s1

>  <InChIKey>
ZMELOYOKMZBMRB-DLBZAZTESA-N

>  <SMILES>
C[C@@H]1C[N@]([C@H](CN1C(=O)c2cc3c(cc2Cl)n(cc3C(=O)C(=O)N(C)C)C)C)Cc4ccc(cc4)F

$$$$
