3U92_KAI_A_258
  RCSB PDB08012020393D
Coordinates from PDB:3U92:A:258 Model:1 without hydrogens
 15 15  0  0  0  0            999 V2000
   44.2120   34.7670   16.9680   N 0  0  0  0  0  0  0  0  0  0  0  0
   45.5870   35.2750   17.0840   C 0  0  0  0  0  0  0  0  0  0  0  0
   47.3110   36.1150   20.4660   C 0  0  0  0  0  0  0  0  0  0  0  0
   48.2810   35.9450   18.1800   C 0  0  0  0  0  0  0  0  0  0  0  0
   43.7470   34.5300   18.3200   C 0  0  0  0  0  0  0  0  0  0  0  0
   44.9360   34.6980   19.2120   C 0  0  0  0  0  0  0  0  0  0  0  0
   45.7580   33.4380   19.3810   C 0  0  0  0  0  0  0  0  0  0  0  0
   45.6890   35.7510   18.4960   C 0  0  0  0  0  0  0  0  0  0  0  0
   45.2000   32.3080   20.2680   C 0  0  0  0  0  0  0  0  0  0  0  0
   47.1410   35.9750   19.0540   C 0  0  0  0  0  0  0  0  0  0  0  0
   42.6500   35.4850   18.6960   C 0  0  0  0  0  0  0  0  0  0  0  0
   42.1320   36.1830   17.7910   O 0  0  0  0  0  0  0  0  0  0  0  0
   44.2540   32.5480   21.0770   O 0  0  0  0  0  0  0  0  0  0  0  0
   45.6970   31.1250   20.1910   O 0  0  0  0  0  0  0  0  0  0  0  0
   42.2350   35.5780   19.8920   O 0  0  0  0  0  0  0  0  0  0  0  0
  1  2  1  0  0  0  0
  1  5  1  0  0  0  0
  2  8  1  0  0  0  0
  3 10  2  0  0  0  0
  4 10  1  0  0  0  0
  5  6  1  0  0  0  0
  5 11  1  0  0  0  0
  6  7  1  0  0  0  0
  6  8  1  0  0  0  0
  7  9  1  0  0  0  0
  8 10  1  0  0  0  0
  9 13  1  0  0  0  0
  9 14  2  0  0  0  0
 11 12  2  0  0  0  0
 11 15  1  0  0  0  0
M  END
>  <InstanceId>
3U92_KAI_A_258

>  <ChemCompId>
KAI

>  <PdbId>
3U92

>  <ChainId>
A

>  <ResidueNumber>
258

>  <InsertionCode>


>  <Model>
1

>  <AltIds>


>  <MissingHeavyAtoms>
0

>  <ObservedFormula>
C10 N O4

>  <Name>
3-(CARBOXYMETHYL)-4-ISOPROPENYLPROLINE

>  <SystematicName>
(2S,3S,4S)-3-(carboxymethyl)-4-prop-1-en-2-yl-pyrrolidine-2-carboxylic acid

>  <Synonyms>
KAINATE

>  <Type>
NON-POLYMER

>  <Formula>
C10 H15 N O4

>  <MolecularWeight>
213.23

>  <ModifiedDate>
2020-06-17

>  <Parent>


>  <OneLetterCode>


>  <SubcomponentList>


>  <AmbiguousFlag>
N

>  <InChI>
InChI=1S/C10H15NO4/c1-5(2)7-4-11-9(10(14)15)6(7)3-8(12)13/h6-7,9,11H,1,3-4H2,2H3,(H,12,13)(H,14,15)/t6-,7+,9-/m0/s1

>  <InChIKey>
VLSMHEGGTFMBBZ-OOZYFLPDSA-N

>  <SMILES>
CC(=C)[C@H]1CN[C@@H]([C@H]1CC(=O)O)C(=O)O

$$$$
