4BCP_T3C_A_1299
  RCSB PDB08012021133D
Coordinates from PDB:4BCP:A:1299 Model:1 without hydrogens
 30 33  0  0  0  0            999 V2000
    3.6970   21.2090   18.6260   C 0  0  0  0  0  0  0  0  0  0  0  0
    4.4310   20.0390   19.0130   N 0  0  0  0  0  0  0  0  0  0  0  0
    5.4570   20.1550   20.0100   C 0  0  0  0  0  0  0  0  0  0  0  0
    6.2270   19.1690   20.4990   N 0  0  0  0  0  0  0  0  0  0  0  0
    7.1310   19.5270   21.4370   C 0  0  0  0  0  0  0  0  0  0  0  0
    8.0650   18.4770   22.0720   C 0  0  0  0  0  0  0  0  0  0  0  0
    7.1550   20.8950   21.7900   C 0  0  0  0  0  0  0  0  0  0  0  0
    7.9510   21.5880   22.7040   C 0  0  0  0  0  0  0  0  0  0  0  0
    7.3360   22.3990   23.6120   N 0  0  0  0  0  0  0  0  0  0  0  0
    8.0410   23.1080   24.5000   C 0  0  0  0  0  0  0  0  0  0  0  0
    7.3450   23.9650   25.4800   N 0  0  0  0  0  0  0  0  0  0  0  0
    6.1050   24.5900   25.2170   C 0  0  0  0  0  0  0  0  0  0  0  0
    5.7610   25.7770   25.9460   C 0  0  0  0  0  0  0  0  0  0  0  0
    4.5400   26.4180   25.7120   C 0  0  0  0  0  0  0  0  0  0  0  0
    3.6420   25.8950   24.7590   C 0  0  0  0  0  0  0  0  0  0  0  0
    3.9720   24.7240   24.0370   C 0  0  0  0  0  0  0  0  0  0  0  0
    3.0200   24.1790   23.0430   N 0  0  0  0  0  0  0  0  0  0  0  0
    2.2110   22.9900   23.1470   C 0  0  0  0  0  0  0  0  0  0  0  0
    0.7510   23.2910   23.0680   C 0  0  0  0  0  0  0  0  0  0  0  0
    0.4110   23.9650   21.7720   C 0  0  0  0  0  0  0  0  0  0  0  0
    1.3740   23.6660   20.7500   N 0  0  0  0  0  0  0  0  0  0  0  0
    2.4450   24.6150   20.6740   C 0  0  0  0  0  0  0  0  0  0  0  0
    3.5140   24.4530   21.7220   C 0  0  0  0  0  0  0  0  0  0  0  0
    5.2190   24.0740   24.2790   C 0  0  0  0  0  0  0  0  0  0  0  0
    9.4050   23.0310   24.5270   N 0  0  0  0  0  0  0  0  0  0  0  0
   10.0790   22.2380   23.6340   C 0  0  0  0  0  0  0  0  0  0  0  0
    9.3640   21.5030   22.7030   C 0  0  0  0  0  0  0  0  0  0  0  0
   10.0880   20.6430   21.7290   C 0  0  0  0  0  0  0  0  0  0  0  0
   10.6410   19.9850   20.9880   N 0  0  0  0  0  0  0  0  0  0  0  0
    5.9370   21.6160   20.8150   S 0  0  0  0  0  0  0  0  0  0  0  0
  1  2  1  0  0  0  0
  2  3  1  0  0  0  0
  3  4  2  0  0  0  0
  3 30  1  0  0  0  0
  4  5  1  0  0  0  0
  5  6  1  0  0  0  0
  5  7  2  0  0  0  0
  7  8  1  0  0  0  0
  7 30  1  0  0  0  0
  8  9  1  0  0  0  0
  8 27  2  0  0  0  0
  9 10  2  0  0  0  0
 10 11  1  0  0  0  0
 10 25  1  0  0  0  0
 11 12  1  0  0  0  0
 12 13  1  0  0  0  0
 12 24  2  0  0  0  0
 13 14  2  0  0  0  0
 14 15  1  0  0  0  0
 15 16  2  0  0  0  0
 16 17  1  0  0  0  0
 16 24  1  0  0  0  0
 17 18  1  0  0  0  0
 17 23  1  0  0  0  0
 18 19  1  0  0  0  0
 19 20  1  0  0  0  0
 20 21  1  0  0  0  0
 21 22  1  0  0  0  0
 22 23  1  0  0  0  0
 25 26  2  0  0  0  0
 26 27  1  0  0  0  0
 27 28  1  0  0  0  0
 28 29  3  0  0  0  0
M  END
>  <InstanceId>
4BCP_T3C_A_1299

>  <ChemCompId>
T3C

>  <PdbId>
4BCP

>  <ChainId>
A

>  <ResidueNumber>
1299

>  <InsertionCode>


>  <Model>
1

>  <AltIds>


>  <MissingHeavyAtoms>
0

>  <ObservedFormula>
C21 N8 S

>  <Name>
2-[[3-(1,4-diazepan-1-yl)phenyl]amino]-4-[4-methyl-2-(methylamino)-1,3-thiazol-5-yl]pyrimidine-5-carbonitrile

>  <SystematicName>
2-[[3-(1,4-diazepan-1-yl)phenyl]amino]-4-[4-methyl-2-(methylamino)-1,3-thiazol-5-yl]pyrimidine-5-carbonitrile

>  <Synonyms>


>  <Type>
non-polymer

>  <Formula>
C21 H24 N8 S

>  <MolecularWeight>
420.534

>  <ModifiedDate>
2014-09-05

>  <Parent>


>  <OneLetterCode>


>  <SubcomponentList>


>  <AmbiguousFlag>
N

>  <InChI>
InChI=1S/C21H24N8S/c1-14-19(30-21(23-2)26-14)18-15(12-22)13-25-20(28-18)27-16-5-3-6-17(11-16)29-9-4-7-24-8-10-29/h3,5-6,11,13,24H,4,7-10H2,1-2H3,(H,23,26)(H,25,27,28)

>  <InChIKey>
BKOYUSKBPMSUBK-UHFFFAOYSA-N

>  <SMILES>
Cc1c(sc(n1)NC)c2c(cnc(n2)Nc3cccc(c3)N4CCCNCC4)C#N

$$$$
