3EKP_478_B_200
  RCSB PDB08012018563D
Coordinates from PDB:3EKP:B:200 Model:1 without hydrogens
 35 37  0  0  0  0            999 V2000
    8.9390  -22.2750   29.7780   C 0  0  0  0  0  0  0  0  0  0  0  0
   11.2180  -21.6590   30.2550   C 0  0  0  0  0  0  0  0  0  0  0  0
   10.5500  -21.7060   33.0940   C 0  0  0  0  0  0  0  0  0  0  0  0
    9.8070  -21.5610   30.8000   C 0  0  0  0  0  0  0  0  0  0  0  0
   11.4930  -22.2660   35.2750   C 0  0  0  0  0  0  0  0  0  0  0  0
   13.0050  -22.4800   35.3110   C 0  0  0  0  0  0  0  0  0  0  0  0
   10.7460  -23.1270   36.3000   C 0  0  0  0  0  0  0  0  0  0  0  0
    9.2470  -22.9340   36.2130   C 0  0  0  0  0  0  0  0  0  0  0  0
    8.4250  -24.0460   36.0350   C 0  0  0  0  0  0  0  0  0  0  0  0
    8.6840  -21.6700   36.3870   C 0  0  0  0  0  0  0  0  0  0  0  0
    7.0410  -23.8890   35.9890   C 0  0  0  0  0  0  0  0  0  0  0  0
    7.2920  -21.5090   36.3190   C 0  0  0  0  0  0  0  0  0  0  0  0
    6.4610  -22.6200   36.1160   C 0  0  0  0  0  0  0  0  0  0  0  0
   13.5660  -21.9700   36.6200   C 0  0  0  0  0  0  0  0  0  0  0  0
   14.8790  -19.9830   36.4360   C 0  0  0  0  0  0  0  0  0  0  0  0
   15.1890  -19.7540   34.9570   C 0  0  0  0  0  0  0  0  0  0  0  0
   13.3940  -19.9120   39.2240   C 0  0  0  0  0  0  0  0  0  0  0  0
   12.9440  -20.7710   40.2300   C 0  0  0  0  0  0  0  0  0  0  0  0
   13.5190  -20.7590   41.5010   C 0  0  0  0  0  0  0  0  0  0  0  0
   14.5570  -19.8820   41.7540   C 0  0  0  0  0  0  0  0  0  0  0  0
   14.9640  -18.9770   40.7930   C 0  0  0  0  0  0  0  0  0  0  0  0
   14.3850  -19.0030   39.5310   C 0  0  0  0  0  0  0  0  0  0  0  0
   14.2380  -18.7110   34.3880   C 0  0  0  0  0  0  0  0  0  0  0  0
   16.6320  -19.2980   34.7960   C 0  0  0  0  0  0  0  0  0  0  0  0
   11.0610  -22.2220   28.8520   C 0  0  0  0  0  0  0  0  0  0  0  0
   10.9400  -22.5900   33.9950   N 0  0  0  0  0  0  0  0  0  0  0  0
   13.5230  -20.5180   36.5670   N 0  0  0  0  0  0  0  0  0  0  0  0
   15.1500  -19.8640   42.9550   N 0  0  0  0  0  0  0  0  0  0  0  0
    9.7400  -22.2630   32.0180   O 0  0  0  0  0  0  0  0  0  0  0  0
   10.7900  -20.5310   33.1220   O 0  0  0  0  0  0  0  0  0  0  0  0
   13.3960  -23.8410   35.2460   O 0  0  0  0  0  0  0  0  0  0  0  0
   11.3890  -20.5000   37.9220   O 0  0  0  0  0  0  0  0  0  0  0  0
   12.4170  -18.5160   37.4030   O 0  0  0  0  0  0  0  0  0  0  0  0
    9.8140  -22.8970   28.8210   O 0  0  0  0  0  0  0  0  0  0  0  0
   12.6720  -19.8610   37.7860   S 0  0  0  0  0  0  0  0  0  0  0  0
  1  4  1  0  0  0  0
  1 34  1  0  0  0  0
  2  4  1  0  0  0  0
  2 25  1  0  0  0  0
  3 26  1  0  0  0  0
  3 29  1  0  0  0  0
  3 30  2  0  0  0  0
  4 29  1  0  0  0  0
  5  6  1  0  0  0  0
  5  7  1  0  0  0  0
  5 26  1  0  0  0  0
  6 14  1  0  0  0  0
  6 31  1  0  0  0  0
  7  8  1  0  0  0  0
  8  9  2  0  0  0  0
  8 10  1  0  0  0  0
  9 11  1  0  0  0  0
 10 12  2  0  0  0  0
 11 13  2  0  0  0  0
 12 13  1  0  0  0  0
 14 27  1  0  0  0  0
 15 16  1  0  0  0  0
 15 27  1  0  0  0  0
 16 23  1  0  0  0  0
 16 24  1  0  0  0  0
 17 18  2  0  0  0  0
 17 22  1  0  0  0  0
 17 35  1  0  0  0  0
 18 19  1  0  0  0  0
 19 20  2  0  0  0  0
 20 21  1  0  0  0  0
 20 28  1  0  0  0  0
 21 22  2  0  0  0  0
 25 34  1  0  0  0  0
 27 35  1  0  0  0  0
 32 35  2  0  0  0  0
 33 35  2  0  0  0  0
M  END
>  <InstanceId>
3EKP_478_B_200

>  <ChemCompId>
478

>  <PdbId>
3EKP

>  <ChainId>
B

>  <ResidueNumber>
200

>  <InsertionCode>


>  <Model>
1

>  <AltIds>


>  <MissingHeavyAtoms>
0

>  <ObservedFormula>
C25 N3 O6 S

>  <Name>
{3-[(4-AMINO-BENZENESULFONYL)-ISOBUTYL-AMINO]-1-BENZYL-2-HYDROXY-PROPYL}-CARBAMIC ACID TETRAHYDRO-FURAN-3-YL ESTER

>  <SystematicName>
[(3S)-oxolan-3-yl] N-[(2S,3R)-4-[(4-aminophenyl)sulfonyl-(2-methylpropyl)amino]-3-hydroxy-1-phenyl-butan-2-yl]carbamate

>  <Synonyms>
Amprenavir

>  <Type>
NON-POLYMER

>  <Formula>
C25 H35 N3 O6 S

>  <MolecularWeight>
505.627

>  <ModifiedDate>
2020-06-17

>  <Parent>


>  <OneLetterCode>


>  <SubcomponentList>


>  <AmbiguousFlag>
N

>  <InChI>
InChI=1S/C25H35N3O6S/c1-18(2)15-28(35(31,32)22-10-8-20(26)9-11-22)16-24(29)23(14-19-6-4-3-5-7-19)27-25(30)34-21-12-13-33-17-21/h3-11,18,21,23-24,29H,12-17,26H2,1-2H3,(H,27,30)/t21-,23-,24+/m0/s1

>  <InChIKey>
YMARZQAQMVYCKC-OEMFJLHTSA-N

>  <SMILES>
CC(C)C[N@](C[C@H]([C@H](Cc1ccccc1)NC(=O)O[C@H]2CCOC2)O)S(=O)(=O)c3ccc(cc3)N

$$$$
