6FUJ_E8B_A_301
  RCSB PDB08022004433D
Coordinates from PDB:6FUJ:A:301 Model:1 without hydrogens
 21 22  0  0  0  0            999 V2000
    9.8650   47.2850   72.5540   N 0  0  0  0  0  0  0  0  0  0  0  0
    8.5630   47.7940   72.9790   C 0  0  0  0  0  0  0  0  0  0  0  0
    8.2920   49.2380   72.6490   C 0  0  0  0  0  0  0  0  0  0  0  0
    7.1690   49.8140   73.2160   C 0  0  0  0  0  0  0  0  0  0  0  0
    6.8000   51.1460   72.9020   C 0  0  0  0  0  0  0  0  0  0  0  0
    8.7610   51.3460   71.5720   C 0  0  0  0  0  0  0  0  0  0  0  0
    9.0810   50.0050   71.8150   C 0  0  0  0  0  0  0  0  0  0  0  0
    5.6170   51.7810   73.5560   C 0  0  0  0  0  0  0  0  0  0  0  0
    3.8360   53.4350   73.5030   C 0  0  0  0  0  0  0  0  0  0  0  0
    3.4780   53.1180   74.7810   C 0  0  0  0  0  0  0  0  0  0  0  0
    3.2440   53.8480   70.7690   O 0  0  0  0  0  0  0  0  0  0  0  0
    3.0400   54.6990   71.6200   C 0  0  0  0  0  0  0  0  0  0  0  0
    2.4770   56.0760   71.2700   C 0  0  0  0  0  0  0  0  0  0  0  0
    3.5660   57.1010   70.8120   C 0  0  0  0  0  0  0  0  0  0  0  0
    4.3480   56.6620   69.5590   C 0  0  0  0  0  0  0  0  0  0  0  0
    4.5450   57.5380   71.9210   C 0  0  0  0  0  0  0  0  0  0  0  0
    3.2360   54.5120   72.8440   N 0  0  0  0  0  0  0  0  0  0  0  0
    4.9320   52.7940   72.9220   C 0  0  0  0  0  0  0  0  0  0  0  0
    4.1510   52.0990   75.4580   C 0  0  0  0  0  0  0  0  0  0  0  0
    5.2240   51.4340   74.8680   C 0  0  0  0  0  0  0  0  0  0  0  0
    7.6230   51.9410   72.0770   C 0  0  0  0  0  0  0  0  0  0  0  0
 15 14  1  0  0  0  0
 11 12  2  0  0  0  0
 14 13  1  0  0  0  0
 14 16  1  0  0  0  0
 13 12  1  0  0  0  0
  6  7  2  0  0  0  0
  6 21  1  0  0  0  0
 12 17  1  0  0  0  0
  7  3  1  0  0  0  0
 21  5  2  0  0  0  0
  1  2  1  0  0  0  0
  3  2  1  0  0  0  0
  3  4  2  0  0  0  0
 17  9  1  0  0  0  0
  5  4  1  0  0  0  0
  5  8  1  0  0  0  0
 18  9  2  0  0  0  0
 18  8  1  0  0  0  0
  9 10  1  0  0  0  0
  8 20  2  0  0  0  0
 10 19  2  0  0  0  0
 20 19  1  0  0  0  0
M  END
>  <InstanceId>
6FUJ_E8B_A_301

>  <ChemCompId>
E8B

>  <PdbId>
6FUJ

>  <ChainId>
A

>  <ResidueNumber>
301

>  <InsertionCode>


>  <Model>
1

>  <AltIds>


>  <MissingHeavyAtoms>
0

>  <ObservedFormula>
C18 N2 O

>  <Name>
~{N}-[3-[3-(aminomethyl)phenyl]phenyl]-3-methyl-butanamide

>  <SystematicName>
~{N}-[3-[3-(aminomethyl)phenyl]phenyl]-3-methyl-butanamide

>  <Synonyms>


>  <Type>
NON-POLYMER

>  <Formula>
C18 H22 N2 O

>  <MolecularWeight>
282.38

>  <ModifiedDate>
2018-06-01

>  <Parent>


>  <OneLetterCode>


>  <SubcomponentList>


>  <AmbiguousFlag>
N

>  <InChI>
InChI=1S/C18H22N2O/c1-13(2)9-18(21)20-17-8-4-7-16(11-17)15-6-3-5-14(10-15)12-19/h3-8,10-11,13H,9,12,19H2,1-2H3,(H,20,21)

>  <InChIKey>
ZTMBFIOZACRTLO-UHFFFAOYSA-N

>  <SMILES>
CC(C)CC(=O)Nc1cccc(c1)c2cccc(c2)CN

$$$$
