5OSE_A98_A_404
  RCSB PDB08022002443D
Coordinates from PDB:5OSE:A:404 Model:1 without hydrogens
 13 13  0  0  0  0            999 V2000
   -2.3970   30.2350  -24.4400   C 0  0  0  0  0  0  0  0  0  0  0  0
   -3.1840   32.4970  -24.7900   C 0  0  0  0  0  0  0  0  0  0  0  0
   -4.4430   34.4520  -25.1590   C 0  0  0  0  0  0  0  0  0  0  0  0
   -1.0240   28.9250  -22.8140   C 0  0  0  0  0  0  0  0  0  0  0  0
    0.7800   27.0410  -21.9610   C 0  0  0  0  0  0  0  0  0  0  0  0
    1.8530   26.7210  -20.9540   C 0  0  0  0  0  0  0  0  0  0  0  0
   -0.0520   28.5540  -21.4220   S 0  0  0  0  0  0  0  0  0  0  0  0
   -1.4360   28.2090  -23.8540   N 0  0  0  0  0  0  0  0  0  0  0  0
   -2.2350   28.9590  -24.7850   N 0  0  0  0  0  0  0  0  0  0  0  0
   -1.5880   30.5280  -22.9600   S 0  0  0  0  0  0  0  0  0  0  0  0
   -3.1170   31.1830  -25.1460   N 0  0  0  0  0  0  0  0  0  0  0  0
   -2.5040   33.0390  -23.9490   O 0  0  0  0  0  0  0  0  0  0  0  0
   -4.1460   33.0870  -25.5110   O 0  0  0  0  0  0  0  0  0  0  0  0
 13  3  1  0  0  0  0
 13  2  1  0  0  0  0
 11  2  1  0  0  0  0
 11  1  1  0  0  0  0
  2 12  2  0  0  0  0
  9  1  2  0  0  0  0
  9  8  1  0  0  0  0
  1 10  1  0  0  0  0
  8  4  2  0  0  0  0
 10  4  1  0  0  0  0
  4  7  1  0  0  0  0
  5  7  1  0  0  0  0
  5  6  1  0  0  0  0
M  END
>  <InstanceId>
5OSE_A98_A_404

>  <ChemCompId>
A98

>  <PdbId>
5OSE

>  <ChainId>
A

>  <ResidueNumber>
404

>  <InsertionCode>


>  <Model>
1

>  <AltIds>


>  <MissingHeavyAtoms>
0

>  <ObservedFormula>
C6 N3 O2 S2

>  <Name>
methyl ~{N}-(5-ethylsulfanyl-1,3,4-thiadiazol-2-yl)carbamate

>  <SystematicName>
methyl ~{N}-(5-ethylsulfanyl-1,3,4-thiadiazol-2-yl)carbamate

>  <Synonyms>


>  <Type>
NON-POLYMER

>  <Formula>
C6 H9 N3 O2 S2

>  <MolecularWeight>
219.285

>  <ModifiedDate>
2017-10-27

>  <Parent>


>  <OneLetterCode>


>  <SubcomponentList>


>  <AmbiguousFlag>
N

>  <InChI>
InChI=1S/C6H9N3O2S2/c1-3-12-6-9-8-4(13-6)7-5(10)11-2/h3H2,1-2H3,(H,7,8,10)

>  <InChIKey>
SSCYIPXZAWJONZ-UHFFFAOYSA-N

>  <SMILES>
CCSc1nnc(s1)NC(=O)OC

$$$$
