4QPL_V3L_A_201
  RCSB PDB08012023023D
Coordinates from PDB:4QPL:A:201 Model:1 without hydrogens
 36 39  0  0  0  0            999 V2000
   52.5290   14.8710   34.4630   N 0  0  0  0  0  0  0  0  0  0  0  0
   52.9040   15.0800   33.1840   C 0  0  0  0  0  0  0  0  0  0  0  0
   53.3170   14.0750   32.3950   N 0  0  0  0  0  0  0  0  0  0  0  0
   53.3850   12.8010   32.8710   C 0  0  0  0  0  0  0  0  0  0  0  0
   53.0310   12.5130   34.1730   C 0  0  0  0  0  0  0  0  0  0  0  0
   52.5870   13.6290   35.0070   C 0  0  0  0  0  0  0  0  0  0  0  0
   52.2210   13.3930   36.2720   N 0  0  0  0  0  0  0  0  0  0  0  0
   53.1750   11.1860   34.3810   N 0  0  0  0  0  0  0  0  0  0  0  0
   53.6240   10.6580   33.2240   C 0  0  0  0  0  0  0  0  0  0  0  0
   53.7210   11.6470   32.3070   N 0  0  0  0  0  0  0  0  0  0  0  0
   55.1230    6.9310   32.3350   P 0  0  0  0  0  0  0  0  0  0  0  0
   62.4850   12.4390   32.6960   P 0  0  0  0  0  0  0  0  0  0  0  0
   57.4840   12.7200   32.0670   C 0  0  0  0  0  0  0  0  0  0  0  0
   54.2310   11.5250   30.9300   C 0  0  0  0  0  0  0  0  0  0  0  0
   55.5390    7.2870   33.7280   O 0  0  0  0  0  0  0  0  0  0  0  0
   61.9500   11.0680   33.0570   O 0  0  0  0  0  0  0  0  0  0  0  0
   57.9840   14.1640   32.1490   C 0  0  0  0  0  0  0  0  0  0  0  0
   56.9250   15.1250   32.2880   O 0  0  0  0  0  0  0  0  0  0  0  0
   55.7470   11.3500   31.0420   C 0  0  0  0  0  0  0  0  0  0  0  0
   56.4240   12.6050   31.1260   O 0  0  0  0  0  0  0  0  0  0  0  0
   53.6550    6.6420   32.2150   O 0  0  0  0  0  0  0  0  0  0  0  0
   63.6010   12.4520   31.6960   O 0  0  0  0  0  0  0  0  0  0  0  0
   58.8220   14.2890   30.8780   C 0  0  0  0  0  0  0  0  0  0  0  0
   58.0740   14.7780   29.7460   O 0  0  0  0  0  0  0  0  0  0  0  0
   56.0840   10.5430   29.8140   C 0  0  0  0  0  0  0  0  0  0  0  0
   56.3740   11.4140   28.7140   O 0  0  0  0  0  0  0  0  0  0  0  0
   56.0240    5.9270   31.6700   O 0  0  0  0  0  0  0  0  0  0  0  0
   62.7380   13.3520   33.8680   O 0  0  0  0  0  0  0  0  0  0  0  0
   59.2720   12.8500   30.5910   C 0  0  0  0  0  0  0  0  0  0  0  0
   58.6280   12.0230   31.5660   O 0  0  0  0  0  0  0  0  0  0  0  0
   54.8260    9.7300   29.5660   C 0  0  0  0  0  0  0  0  0  0  0  0
   53.7440   10.3850   30.2400   O 0  0  0  0  0  0  0  0  0  0  0  0
   60.7970   12.6920   30.6520   C 0  0  0  0  0  0  0  0  0  0  0  0
   61.2950   13.1850   31.9030   O 0  0  0  0  0  0  0  0  0  0  0  0
   54.9420    8.2980   30.0840   C 0  0  0  0  0  0  0  0  0  0  0  0
   55.3140    8.2730   31.4660   O 0  0  0  0  0  0  0  0  0  0  0  0
  1  6  2  0  0  0  0
  1  2  1  0  0  0  0
  2  3  2  0  0  0  0
  4  3  1  0  0  0  0
  5  4  2  0  0  0  0
  4 10  1  0  0  0  0
  6  5  1  0  0  0  0
  5  8  1  0  0  0  0
  7  6  1  0  0  0  0
  8  9  2  0  0  0  0
  9 10  1  0  0  0  0
 10 14  1  0  0  0  0
 21 11  2  0  0  0  0
 11 36  1  0  0  0  0
 11 15  1  0  0  0  0
 11 27  1  0  0  0  0
 34 12  1  0  0  0  0
 22 12  2  0  0  0  0
 12 28  1  0  0  0  0
 12 16  1  0  0  0  0
 20 13  1  0  0  0  0
 13 17  1  0  0  0  0
 13 30  1  0  0  0  0
 32 14  1  0  0  0  0
 14 19  1  0  0  0  0
 18 17  1  0  0  0  0
 17 23  1  0  0  0  0
 25 19  1  0  0  0  0
 19 20  1  0  0  0  0
 24 23  1  0  0  0  0
 23 29  1  0  0  0  0
 31 25  1  0  0  0  0
 25 26  1  0  0  0  0
 30 29  1  0  0  0  0
 29 33  1  0  0  0  0
 32 31  1  0  0  0  0
 35 31  1  0  0  0  0
 33 34  1  0  0  0  0
 35 36  1  0  0  0  0
M  END
>  <InstanceId>
4QPL_V3L_A_201

>  <ChemCompId>
V3L

>  <PdbId>
4QPL

>  <ChainId>
A

>  <ResidueNumber>
201

>  <InsertionCode>


>  <Model>
1

>  <AltIds>


>  <MissingHeavyAtoms>
0

>  <ObservedFormula>
C15 N5 O14 P2

>  <Name>
2'-O-(5-O-phosphono-alpha-D-ribofuranosyl)adenosine 5'-(dihydrogen phosphate)

>  <SystematicName>
[(2R,3R,4R,5R)-5-(6-aminopurin-9-yl)-4-[(2R,3R,4S,5R)-3,4-bis(oxidanyl)-5-(phosphonooxymethyl)oxolan-2-yl]oxy-3-oxidanyl-oxolan-2-yl]methyl dihydrogen phosphate

>  <Synonyms>


>  <Type>
RNA linking

>  <Formula>
C15 H23 N5 O14 P2

>  <MolecularWeight>
559.316

>  <ModifiedDate>
2014-05-29

>  <Parent>
A

>  <OneLetterCode>


>  <SubcomponentList>


>  <AmbiguousFlag>
N

>  <InChI>
InChI=1S/C15H23N5O14P2/c16-12-7-13(18-3-17-12)20(4-19-7)14-11(9(22)6(32-14)2-31-36(27,28)29)34-15-10(23)8(21)5(33-15)1-30-35(24,25)26/h3-6,8-11,14-15,21-23H,1-2H2,(H2,16,17,18)(H2,24,25,26)(H2,27,28,29)/t5-,6-,8-,9-,10-,11-,14-,15-/m1/s1

>  <InChIKey>
BHIWBSNWEZIHHL-KEOHHSTQSA-N

>  <SMILES>
c1nc(c2c(n1)n(cn2)[C@H]3[C@@H]([C@@H]([C@H](O3)COP(=O)(O)O)O)O[C@@H]4[C@@H]([C@@H]([C@H](O4)COP(=O)(O)O)O)O)N

$$$$
