4P6W_MOF_A_801
  RCSB PDB08012022503D
Coordinates from PDB:4P6W:A:801 Model:1 without hydrogens
 35 39  0  0  0  0            999 V2000
   27.7810  -56.1620  -42.1150   O 0  0  0  0  0  0  0  0  0  0  0  0
   27.3110  -55.1350  -41.5820   C 0  0  0  0  0  0  0  0  0  0  0  0
   28.0430  -53.9490  -41.5800   C 0  0  0  0  0  0  0  0  0  0  0  0
   26.1440  -55.2530  -40.8530   C 0  0  0  0  0  0  0  0  0  0  0  0
   25.6110  -54.1600  -40.2020   C 0  0  0  0  0  0  0  0  0  0  0  0
   24.3320  -54.3510  -39.4150   C 0  0  0  0  0  0  0  0  0  0  0  0
   26.3030  -52.8240  -40.1800   C 0  0  0  0  0  0  0  0  0  0  0  0
   27.5680  -52.8300  -40.9100   C 0  0  0  0  0  0  0  0  0  0  0  0
   25.3550  -51.8680  -40.9250   C 0  0  0  0  0  0  0  0  0  0  0  0
   26.6120  -52.5510  -38.6890   C 0  0  0  0  0  0  0  0  0  0  0  0
   27.6440  -53.9090  -38.0680  Cl 0  0  0  0  0  0  0  0  0  0  0  0
   27.5150  -51.3330  -38.4140   C 0  0  0  0  0  0  0  0  0  0  0  0
   27.1190  -50.1310  -39.0860   O 0  0  0  0  0  0  0  0  0  0  0  0
   25.2970  -52.5640  -37.8770   C 0  0  0  0  0  0  0  0  0  0  0  0
   24.5770  -53.9060  -37.9780   C 0  0  0  0  0  0  0  0  0  0  0  0
   25.5960  -52.3060  -36.4060   C 0  0  0  0  0  0  0  0  0  0  0  0
   24.4490  -52.3130  -35.4070   C 0  0  0  0  0  0  0  0  0  0  0  0
   25.0530  -51.5950  -34.2050   C 0  0  0  0  0  0  0  0  0  0  0  0
   24.8040  -52.5060  -33.0070   C 0  0  0  0  0  0  0  0  0  0  0  0
   26.3470  -51.0120  -36.1420   C 0  0  0  0  0  0  0  0  0  0  0  0
   27.6710  -51.0570  -36.9170   C 0  0  0  0  0  0  0  0  0  0  0  0
   25.5320  -49.7410  -36.4600   C 0  0  0  0  0  0  0  0  0  0  0  0
   26.4900  -51.1550  -34.6200   C 0  0  0  0  0  0  0  0  0  0  0  0
   26.9710  -49.8350  -34.0450   C 0  0  0  0  0  0  0  0  0  0  0  0
   26.0960  -49.0300  -33.4680   O 0  0  0  0  0  0  0  0  0  0  0  0
   28.3950  -49.3150  -34.0740   C 0  0  0  0  0  0  0  0  0  0  0  0
   28.5190  -47.5560  -34.6420  Cl 0  0  0  0  0  0  0  0  0  0  0  0
   27.4720  -52.1920  -34.3780   O 0  0  0  0  0  0  0  0  0  0  0  0
   28.2140  -52.5770  -33.1610   C 0  0  0  0  0  0  0  0  0  0  0  0
   28.2420  -51.9330  -32.1120   O 0  0  0  0  0  0  0  0  0  0  0  0
   28.9810  -53.8210  -33.1680   C 0  0  0  0  0  0  0  0  0  0  0  0
   29.2080  -54.7700  -34.1220   C 0  0  0  0  0  0  0  0  0  0  0  0
   30.0290  -55.6740  -33.4900   C 0  0  0  0  0  0  0  0  0  0  0  0
   30.2510  -55.2580  -32.1950   C 0  0  0  0  0  0  0  0  0  0  0  0
   29.5940  -54.0780  -31.9870   O 0  0  0  0  0  0  0  0  0  0  0  0
  1  2  2  0  0  0  0
  2  3  1  0  0  0  0
  2  4  1  0  0  0  0
  3  8  2  0  0  0  0
  4  5  2  0  0  0  0
  5  6  1  0  0  0  0
  5  7  1  0  0  0  0
  6 15  1  0  0  0  0
  7  8  1  0  0  0  0
  7  9  1  0  0  0  0
  7 10  1  0  0  0  0
 10 11  1  0  0  0  0
 10 12  1  0  0  0  0
 10 14  1  0  0  0  0
 12 13  1  0  0  0  0
 12 21  1  0  0  0  0
 14 15  1  0  0  0  0
 14 16  1  0  0  0  0
 16 17  1  0  0  0  0
 16 20  1  0  0  0  0
 17 18  1  0  0  0  0
 18 19  1  0  0  0  0
 18 23  1  0  0  0  0
 20 21  1  0  0  0  0
 20 22  1  0  0  0  0
 20 23  1  0  0  0  0
 23 24  1  0  0  0  0
 23 28  1  0  0  0  0
 24 25  2  0  0  0  0
 24 26  1  0  0  0  0
 26 27  1  0  0  0  0
 28 29  1  0  0  0  0
 29 30  2  0  0  0  0
 29 31  1  0  0  0  0
 31 32  2  0  0  0  0
 31 35  1  0  0  0  0
 32 33  1  0  0  0  0
 33 34  2  0  0  0  0
 34 35  1  0  0  0  0
M  END
>  <InstanceId>
4P6W_MOF_A_801

>  <ChemCompId>
MOF

>  <PdbId>
4P6W

>  <ChainId>
A

>  <ResidueNumber>
801

>  <InsertionCode>


>  <Model>
1

>  <AltIds>


>  <MissingHeavyAtoms>
0

>  <ObservedFormula>
C27 O6 Cl2

>  <Name>
MOMETASONE FUROATE

>  <SystematicName>
[(8S,9R,10S,11S,13S,14S,16R,17R)-9-chloro-17-(2-chloroethanoyl)-11-hydroxy-10,13,16-trimethyl-3-oxo-6,7,8,11,12,14,15,16-octahydrocyclopenta[a]phenanthren-17-yl] furan-2-carboxylate

>  <Synonyms>


>  <Type>
NON-POLYMER

>  <Formula>
C27 H30 Cl2 O6

>  <MolecularWeight>
521.429

>  <ModifiedDate>
2011-06-04

>  <Parent>


>  <OneLetterCode>


>  <SubcomponentList>


>  <AmbiguousFlag>
N

>  <InChI>
InChI=1S/C27H30Cl2O6/c1-15-11-19-18-7-6-16-12-17(30)8-9-24(16,2)26(18,29)21(31)13-25(19,3)27(15,22(32)14-28)35-23(33)20-5-4-10-34-20/h4-5,8-10,12,15,18-19,21,31H,6-7,11,13-14H2,1-3H3/t15-,18+,19+,21+,24+,25+,26+,27+/m1/s1

>  <InChIKey>
WOFMFGQZHJDGCX-ZULDAHANSA-N

>  <SMILES>
C[C@@H]1C[C@H]2[C@@H]3CCC4=CC(=O)C=C[C@@]4([C@]3([C@H](C[C@@]2([C@]1(C(=O)CCl)OC(=O)c5ccco5)C)O)Cl)C

$$$$
