2YME_CWB_A_1207
  RCSB PDB08012018233D
Coordinates from PDB:2YME:A:1207 Model:1 without hydrogens
 23 26  0  0  0  0            999 V2000
   55.8880   -7.4460   70.8620   O 0  0  0  0  0  0  0  0  0  0  0  0
   54.7590   -7.5690   71.3730   C 0  0  0  0  0  0  0  0  0  0  0  0
   54.3430   -8.9000   72.0380   C 0  0  0  0  0  0  0  0  0  0  0  0
   55.1910  -10.1160   72.1950   C 0  0  0  0  0  0  0  0  0  0  0  0
   56.5080  -10.4570   71.8370   C 0  0  0  0  0  0  0  0  0  0  0  0
   57.0070  -11.7440   72.1510   C 0  0  0  0  0  0  0  0  0  0  0  0
   56.1820  -12.6730   72.8280   C 0  0  0  0  0  0  0  0  0  0  0  0
   54.8600  -12.3280   73.1930   C 0  0  0  0  0  0  0  0  0  0  0  0
   54.3600  -11.0570   72.8740   C 0  0  0  0  0  0  0  0  0  0  0  0
   53.1380  -10.4420   73.0950   N 0  0  0  0  0  0  0  0  0  0  0  0
   51.9910  -11.0660   73.7550   C 0  0  0  0  0  0  0  0  0  0  0  0
   53.1500   -9.1800   72.6010   N 0  0  0  0  0  0  0  0  0  0  0  0
   53.7550   -6.5120   71.2750   N 0  0  0  0  0  0  0  0  0  0  0  0
   54.0270   -5.2120   70.6650   C 0  0  0  0  0  0  0  0  0  0  0  0
   54.8140   -4.5420   71.6560   C 0  0  0  0  0  0  0  0  0  0  0  0
   54.2150   -3.3770   72.3800   C 0  0  0  0  0  0  0  0  0  0  0  0
   52.6540   -4.6970   70.3470   C 0  0  0  0  0  0  0  0  0  0  0  0
   52.1450   -3.5530   71.1500   C 0  0  0  0  0  0  0  0  0  0  0  0
   53.1730   -2.6670   71.6090   N 0  0  0  0  0  0  0  0  0  0  0  0
   52.6850   -1.4150   72.0470   C 0  0  0  0  0  0  0  0  0  0  0  0
   51.3520   -4.0470   72.3730   C 0  0  0  0  0  0  0  0  0  0  0  0
   52.2730   -4.5730   73.4900   C 0  0  0  0  0  0  0  0  0  0  0  0
   53.5850   -3.8270   73.6420   C 0  0  0  0  0  0  0  0  0  0  0  0
  1  2  2  0  0  0  0
  2  3  1  0  0  0  0
  2 13  1  0  0  0  0
  3  4  1  0  0  0  0
  3 12  2  0  0  0  0
  4  5  1  0  0  0  0
  4  9  2  0  0  0  0
  5  6  2  0  0  0  0
  6  7  1  0  0  0  0
  7  8  2  0  0  0  0
  8  9  1  0  0  0  0
  9 10  1  0  0  0  0
 10 11  1  0  0  0  0
 10 12  1  0  0  0  0
 13 14  1  0  0  0  0
 14 15  1  0  0  0  0
 14 17  1  0  0  0  0
 15 16  1  0  0  0  0
 16 19  1  0  0  0  0
 16 23  1  0  0  0  0
 17 18  1  0  0  0  0
 18 19  1  0  0  0  0
 18 21  1  0  0  0  0
 19 20  1  0  0  0  0
 21 22  1  0  0  0  0
 22 23  1  0  0  0  0
M  END
>  <InstanceId>
2YME_CWB_A_1207

>  <ChemCompId>
CWB

>  <PdbId>
2YME

>  <ChainId>
A

>  <ResidueNumber>
1207

>  <InsertionCode>


>  <Model>
1

>  <AltIds>


>  <MissingHeavyAtoms>
0

>  <ObservedFormula>
C18 N4 O

>  <Name>
1-methyl-N-[(1R,5S)-9-methyl-9-azabicyclo[3.3.1]nonan-3-yl]indazole-3-carboxamide

>  <SystematicName>
1-methyl-N-[(1R,5S)-9-methyl-9-azabicyclo[3.3.1]nonan-3-yl]indazole-3-carboxamide

>  <Synonyms>
GRANISETRON

>  <Type>
non-polymer

>  <Formula>
C18 H24 N4 O

>  <MolecularWeight>
312.409

>  <ModifiedDate>
2014-09-05

>  <Parent>


>  <OneLetterCode>


>  <SubcomponentList>


>  <AmbiguousFlag>
N

>  <InChI>
InChI=1S/C18H24N4O/c1-21-13-6-5-7-14(21)11-12(10-13)19-18(23)17-15-8-3-4-9-16(15)22(2)20-17/h3-4,8-9,12-14H,5-7,10-11H2,1-2H3,(H,19,23)/t12-,13+,14-

>  <InChIKey>
MFWNKCLOYSRHCJ-BTTYYORXSA-N

>  <SMILES>
Cn1c2ccccc2c(n1)C(=O)NC3C[C@H]4CCC[C@@H](C3)N4C

$$$$
