6AYQ_TDI_A_301
  RCSB PDB08022003593D
Coordinates from PDB:6AYQ:A:301 Model:1 without hydrogens
 20 22  0  0  0  0            999 V2000
   13.9720  -10.3520   31.9200   C 0  0  0  0  0  0  0  0  0  0  0  0
   14.7350   -9.1130   30.1510   C 0  0  0  0  0  0  0  0  0  0  0  0
   15.2520  -10.3110   29.5120   C 0  0  0  0  0  0  0  0  0  0  0  0
   15.0320  -11.5720   30.2110   C 0  0  0  0  0  0  0  0  0  0  0  0
   20.3690   -6.7800   33.1720   C 0  0  0  0  0  0  0  0  0  0  0  0
   18.7650   -7.3500   33.6550   S 0  0  0  0  0  0  0  0  0  0  0  0
   17.9200   -7.2200   32.1030   C 0  0  0  0  0  0  0  0  0  0  0  0
   17.4510   -5.7970   31.7530   C 0  0  0  0  0  0  0  0  0  0  0  0
   16.9480   -5.7040   30.3190   C 0  0  0  0  0  0  0  0  0  0  0  0
   15.5420   -6.0220   30.4860   N 0  0  0  0  0  0  0  0  0  0  0  0
   14.7390   -6.5090   29.4020   C 0  0  0  0  0  0  0  0  0  0  0  0
   15.0550   -7.9810   29.2740   C 0  0  0  0  0  0  0  0  0  0  0  0
   15.7060   -8.5710   28.2020   C 0  0  0  0  0  0  0  0  0  0  0  0
   15.8260   -9.9200   28.3610   N 0  0  0  0  0  0  0  0  0  0  0  0
   15.4540  -12.7420   29.6990   N 0  0  0  0  0  0  0  0  0  0  0  0
   14.4100  -11.5270   31.4040   N 0  0  0  0  0  0  0  0  0  0  0  0
   14.1120   -9.1490   31.3470   N 0  0  0  0  0  0  0  0  0  0  0  0
   15.0690   -5.9160   31.8620   C 0  0  0  0  0  0  0  0  0  0  0  0
   16.2610   -5.3230   32.5740   C 0  0  0  0  0  0  0  0  0  0  0  0
   16.1450   -3.9070   32.4870   O 0  0  0  0  0  0  0  0  0  0  0  0
  1 16  2  0  0  0  0
  1 17  1  0  0  0  0
  2  3  1  0  0  0  0
  2 12  1  0  0  0  0
  2 17  2  0  0  0  0
  3  4  2  0  0  0  0
  3 14  1  0  0  0  0
  4 15  1  0  0  0  0
  4 16  1  0  0  0  0
  5  6  1  0  0  0  0
  6  7  1  0  0  0  0
  7  8  1  0  0  0  0
  8  9  1  0  0  0  0
  8 19  1  0  0  0  0
  9 10  1  0  0  0  0
 10 11  1  0  0  0  0
 10 18  1  0  0  0  0
 11 12  1  0  0  0  0
 12 13  2  0  0  0  0
 13 14  1  0  0  0  0
 18 19  1  0  0  0  0
 19 20  1  0  0  0  0
M  END
>  <InstanceId>
6AYQ_TDI_A_301

>  <ChemCompId>
TDI

>  <PdbId>
6AYQ

>  <ChainId>
A

>  <ResidueNumber>
301

>  <InsertionCode>


>  <Model>
1

>  <AltIds>


>  <MissingHeavyAtoms>
0

>  <ObservedFormula>
C13 N5 O S

>  <Name>
(3R,4S)-1-[(4-AMINO-5H-PYRROLO[3,2-D]PYRIMIDIN-7-YL)METHYL]-4-[(METHYLSULFANYL)METHYL]PYRROLIDIN-3-OL

>  <SystematicName>
(1S,3R,4S)-1-[(4-amino-5H-pyrrolo[4,5-d]pyrimidin-7-yl)methyl]-4-(methylsulfanylmethyl)pyrrolidin-3-ol

>  <Synonyms>
(3R,4S)-1-[9-DEAZAADENIN-9-YL)METHYL]-3-HYDROXY-4-(METHYLTHIOMETHYL)PYRROLIDINE

>  <Type>
NON-POLYMER

>  <Formula>
C13 H19 N5 O S

>  <MolecularWeight>
293.388

>  <ModifiedDate>
2011-06-04

>  <Parent>


>  <OneLetterCode>


>  <SubcomponentList>


>  <AmbiguousFlag>
N

>  <InChI>
InChI=1S/C13H19N5OS/c1-20-6-9-4-18(5-10(9)19)3-8-2-15-12-11(8)16-7-17-13(12)14/h2,7,9-10,15,19H,3-6H2,1H3,(H2,14,16,17)/t9-,10+/m1/s1

>  <InChIKey>
NTHMDFGHOCNNOE-ZJUUUORDSA-N

>  <SMILES>
CSC[C@H]1C[N@](C[C@@H]1O)Cc2c[nH]c3c2ncnc3N

$$$$
