3FQL_79Z_A_571
  RCSB PDB08012019023D
Coordinates from PDB:3FQL:A:571 Model:1 without hydrogens
 31 34  0  0  0  0            999 V2000
  -14.2680   -9.6220   12.1590   C 0  0  0  0  0  0  0  0  0  0  0  0
  -14.4440   -9.7210   10.6420   C 0  0  0  0  0  0  0  0  0  0  0  0
  -13.1480  -10.1830   11.2940   C 0  0  0  0  0  0  0  0  0  0  0  0
  -18.4190  -16.0240    9.0740   C 0  0  0  0  0  0  0  0  0  0  0  0
  -17.6810  -17.1960    9.1660   C 0  0  0  0  0  0  0  0  0  0  0  0
  -18.2820  -18.3960    8.8350   C 0  0  0  0  0  0  0  0  0  0  0  0
  -19.5960  -18.4120    8.3880   C 0  0  0  0  0  0  0  0  0  0  0  0
  -20.3120  -17.2320    8.2490   C 0  0  0  0  0  0  0  0  0  0  0  0
  -19.7190  -16.0230    8.5820   C 0  0  0  0  0  0  0  0  0  0  0  0
  -15.4080  -10.7340   10.1300   C 0  0  0  0  0  0  0  0  0  0  0  0
  -16.4030  -10.3250    9.2180   C 0  0  0  0  0  0  0  0  0  0  0  0
  -17.3260  -11.2420    8.7130   C 0  0  0  0  0  0  0  0  0  0  0  0
  -15.3580  -12.0760   10.5580   C 0  0  0  0  0  0  0  0  0  0  0  0
  -16.2900  -12.9650   10.0380   C 0  0  0  0  0  0  0  0  0  0  0  0
  -17.2530  -12.5480    9.1340   C 0  0  0  0  0  0  0  0  0  0  0  0
  -18.1320  -13.5750    8.7270   O 0  0  0  0  0  0  0  0  0  0  0  0
  -17.7650  -14.7460    9.3480   C 0  0  0  0  0  0  0  0  0  0  0  0
  -16.5990  -14.4110   10.2110   C 0  0  0  0  0  0  0  0  0  0  0  0
  -15.7860  -15.3060   11.0950   C 0  0  0  0  0  0  0  0  0  0  0  0
  -14.5900  -15.3970   10.8810   O 0  0  0  0  0  0  0  0  0  0  0  0
  -16.3400  -16.0160   12.0780   N 0  0  0  0  0  0  0  0  0  0  0  0
  -15.6070  -16.9150   12.9650   C 0  0  0  0  0  0  0  0  0  0  0  0
  -16.5250   -9.0050    8.6980   N 0  0  0  0  0  0  0  0  0  0  0  0
  -15.9290   -8.7640    7.3020   S 0  0  0  0  0  0  0  0  0  0  0  0
  -15.1660   -7.5600    7.2420   O 0  0  0  0  0  0  0  0  0  0  0  0
  -15.0750   -9.8250    6.8270   O 0  0  0  0  0  0  0  0  0  0  0  0
  -17.2130   -8.6880    6.2330   C 0  0  0  0  0  0  0  0  0  0  0  0
  -20.1480  -19.6000    8.0610   F 0  0  0  0  0  0  0  0  0  0  0  0
  -17.2530   -7.9290    9.3200   C 0  0  0  0  0  0  0  0  0  0  0  0
  -17.5750   -8.2540   10.7640   C 0  0  0  0  0  0  0  0  0  0  0  0
  -18.0160   -7.0550   11.3900   O 0  0  0  0  0  0  0  0  0  0  0  0
 22 21  1  0  0  0  0
 21 19  1  0  0  0  0
 20 19  2  0  0  0  0
 19 18  1  0  0  0  0
  1  3  1  0  0  0  0
  1  2  1  0  0  0  0
  3  2  1  0  0  0  0
 18 14  1  0  0  0  0
 18 17  2  0  0  0  0
 13 14  2  0  0  0  0
 13 10  1  0  0  0  0
  5  6  2  0  0  0  0
  5  4  1  0  0  0  0
  6  7  1  0  0  0  0
  2 10  1  0  0  0  0
 14 15  1  0  0  0  0
 17  4  1  0  0  0  0
 17 16  1  0  0  0  0
 10 11  2  0  0  0  0
  4  9  2  0  0  0  0
  7 28  1  0  0  0  0
  7  8  2  0  0  0  0
 31 30  1  0  0  0  0
  9  8  1  0  0  0  0
 15 16  1  0  0  0  0
 15 12  2  0  0  0  0
 30 29  1  0  0  0  0
 11 12  1  0  0  0  0
 11 23  1  0  0  0  0
 29 23  1  0  0  0  0
 23 24  1  0  0  0  0
 26 24  2  0  0  0  0
 24 25  2  0  0  0  0
 24 27  1  0  0  0  0
M  END
>  <InstanceId>
3FQL_79Z_A_571

>  <ChemCompId>
79Z

>  <PdbId>
3FQL

>  <ChainId>
A

>  <ResidueNumber>
571

>  <InsertionCode>


>  <Model>
1

>  <AltIds>


>  <MissingHeavyAtoms>
0

>  <ObservedFormula>
C22 N2 O5 S F

>  <Name>
5-cyclopropyl-2-(4-fluorophenyl)-6-[(2-hydroxyethyl)(methylsulfonyl)amino]-N-methyl-1-benzofuran-3-carboxamide

>  <SystematicName>
5-cyclopropyl-2-(4-fluorophenyl)-6-(2-hydroxyethyl-methylsulfonyl-amino)-N-methyl-1-benzofuran-3-carboxamide

>  <Synonyms>


>  <Type>
NON-POLYMER

>  <Formula>
C22 H23 F N2 O5 S

>  <MolecularWeight>
446.492

>  <ModifiedDate>
2011-06-04

>  <Parent>


>  <OneLetterCode>


>  <SubcomponentList>


>  <AmbiguousFlag>
N

>  <InChI>
InChI=1S/C22H23FN2O5S/c1-24-22(27)20-17-11-16(13-3-4-13)18(25(9-10-26)31(2,28)29)12-19(17)30-21(20)14-5-7-15(23)8-6-14/h5-8,11-13,26H,3-4,9-10H2,1-2H3,(H,24,27)

>  <InChIKey>
WTDWVLJJJOTABN-UHFFFAOYSA-N

>  <SMILES>
CNC(=O)c1c2cc(c(cc2oc1c3ccc(cc3)F)N(CCO)S(=O)(=O)C)C4CC4

$$$$
