3RZ8_RZ8_A_262
  RCSB PDB08012020243D
Coordinates from PDB:3RZ8:A:262 Model:1 without hydrogens
 19 19  0  0  0  0            999 V2000
   15.0160    0.9640   16.8720   S 0  0  0  0  0  0  0  0  0  0  0  0
   18.4590    5.6640   13.4770   N 0  0  0  0  0  0  0  0  0  0  0  0
   16.4920    6.7190   13.6000   O 0  0  0  0  0  0  0  0  0  0  0  0
   16.6380    4.5780   14.6410   C 0  0  0  0  0  0  0  0  0  0  0  0
   14.7570    3.3500   15.5610   C 0  0  0  0  0  0  0  0  0  0  0  0
   15.2410    4.4420   14.8480   C 0  0  0  0  0  0  0  0  0  0  0  0
   15.6240    2.3200   16.0760   C 0  0  0  0  0  0  0  0  0  0  0  0
   17.5200    3.5480   15.0500   C 0  0  0  0  0  0  0  0  0  0  0  0
   17.0040    2.4820   15.7990   C 0  0  0  0  0  0  0  0  0  0  0  0
   17.1960    5.7220   13.8730   C 0  0  0  0  0  0  0  0  0  0  0  0
   19.0170    6.7460   12.6400   C 0  0  0  0  0  0  0  0  0  0  0  0
   13.5760    1.0100   16.7030   O 0  0  0  0  0  0  0  0  0  0  0  0
   20.1770    7.2400   13.4320   C 0  0  0  0  0  0  0  0  0  0  0  0
   15.5630    1.0290   18.2120   O 0  0  0  0  0  0  0  0  0  0  0  0
   19.6820    8.3390   14.3240   C 0  0  0  0  0  0  0  0  0  0  0  0
   15.6550   -0.2720   16.1670   N 0  0  0  0  0  0  0  0  0  0  0  0
   19.9090    9.5710   13.4730   C 0  0  0  0  0  0  0  0  0  0  0  0
   19.4010   10.8150   14.1690   C 0  0  0  0  0  0  0  0  0  0  0  0
   19.1790   11.9580   13.1830   C 0  0  0  0  0  0  0  0  0  0  0  0
  7  1  1  0  0  0  0
 16  1  1  0  0  0  0
 12  1  2  0  0  0  0
  1 14  2  0  0  0  0
 11  2  1  0  0  0  0
  2 10  1  0  0  0  0
  3 10  2  0  0  0  0
 10  4  1  0  0  0  0
  4  6  2  0  0  0  0
  4  8  1  0  0  0  0
  6  5  1  0  0  0  0
  5  7  2  0  0  0  0
  9  7  1  0  0  0  0
  8  9  2  0  0  0  0
 11 13  1  0  0  0  0
 13 15  1  0  0  0  0
 17 15  1  0  0  0  0
 17 18  1  0  0  0  0
 19 18  1  0  0  0  0
M  END
>  <InstanceId>
3RZ8_RZ8_A_262

>  <ChemCompId>
RZ8

>  <PdbId>
3RZ8

>  <ChainId>
A

>  <ResidueNumber>
262

>  <InsertionCode>


>  <Model>
1

>  <AltIds>


>  <MissingHeavyAtoms>
0

>  <ObservedFormula>
C13 N2 O3 S

>  <Name>
N-hexyl-4-sulfamoylbenzamide

>  <SystematicName>
N-hexyl-4-sulfamoyl-benzamide

>  <Synonyms>


>  <Type>
NON-POLYMER

>  <Formula>
C13 H20 N2 O3 S

>  <MolecularWeight>
284.375

>  <ModifiedDate>
2011-08-05

>  <Parent>


>  <OneLetterCode>


>  <SubcomponentList>


>  <AmbiguousFlag>
N

>  <InChI>
InChI=1S/C13H20N2O3S/c1-2-3-4-5-10-15-13(16)11-6-8-12(9-7-11)19(14,17)18/h6-9H,2-5,10H2,1H3,(H,15,16)(H2,14,17,18)

>  <InChIKey>
KLHBIQFDNTURJX-UHFFFAOYSA-N

>  <SMILES>
CCCCCCNC(=O)c1ccc(cc1)S(=O)(=O)N

$$$$
