1D3D_BZT_B_400
  RCSB PDB08012014443D
Coordinates from PDB:1D3D:B:400 Model:1 without hydrogens
 38 43  0  0  0  0            999 V2000
  -24.0350  -30.4500   24.2640   C 0  0  0  0  0  0  0  0  0  0  0  0
  -24.3170  -31.5200   23.3160   C 0  0  0  0  0  0  0  0  0  0  0  0
  -23.4150  -31.8990   22.2780   C 0  0  0  0  0  0  0  0  0  0  0  0
  -22.1640  -31.2090   22.1440   C 0  0  0  0  0  0  0  0  0  0  0  0
  -21.8720  -30.1510   23.0670   C 0  0  0  0  0  0  0  0  0  0  0  0
  -22.7970  -29.7740   24.1230   C 0  0  0  0  0  0  0  0  0  0  0  0
  -23.5320  -33.1090   21.0650   S 0  0  0  0  0  0  0  0  0  0  0  0
  -22.0620  -32.7980   20.3770   C 0  0  0  0  0  0  0  0  0  0  0  0
  -21.3850  -31.7250   21.0720   C 0  0  0  0  0  0  0  0  0  0  0  0
  -19.9710  -31.4780   20.7020   C 0  0  0  0  0  0  0  0  0  0  0  0
  -21.5630  -33.5970   19.2000   C 0  0  0  0  0  0  0  0  0  0  0  0
  -20.9090  -33.0210   18.0190   C 0  0  0  0  0  0  0  0  0  0  0  0
  -20.4460  -33.8360   16.9690   C 0  0  0  0  0  0  0  0  0  0  0  0
  -20.5930  -35.2450   17.0130   C 0  0  0  0  0  0  0  0  0  0  0  0
  -21.2520  -35.8150   18.1900   C 0  0  0  0  0  0  0  0  0  0  0  0
  -21.7360  -35.0190   19.2830   C 0  0  0  0  0  0  0  0  0  0  0  0
  -20.0690  -35.9550   15.8820   O 0  0  0  0  0  0  0  0  0  0  0  0
  -20.1990  -37.4370   15.8820   C 0  0  0  0  0  0  0  0  0  0  0  0
  -19.0980  -33.6610   21.9920   C 0  0  0  0  0  0  0  0  0  0  0  0
  -18.8100  -32.5210   21.1830   C 0  0  0  0  0  0  0  0  0  0  0  0
  -17.4520  -32.3350   20.7780   C 0  0  0  0  0  0  0  0  0  0  0  0
  -16.4170  -33.2730   21.1780   C 0  0  0  0  0  0  0  0  0  0  0  0
  -16.7000  -34.4010   21.9880   C 0  0  0  0  0  0  0  0  0  0  0  0
  -18.0690  -34.5420   22.3680   C 0  0  0  0  0  0  0  0  0  0  0  0
  -14.7860  -32.8190   20.5240  Br 0  0  0  0  0  0  0  0  0  0  0  0
  -15.6910  -35.4540   22.4810   C 0  0  0  0  0  0  0  0  0  0  0  0
  -14.2590  -35.6570   25.9730   C 0  0  0  0  0  0  0  0  0  0  0  0
  -14.4620  -34.1290   25.8850   C 0  0  0  0  0  0  0  0  0  0  0  0
  -14.6010  -34.0250   24.3150   C 0  0  0  0  0  0  0  0  0  0  0  0
  -15.2820  -35.3250   23.8710   N 0  0  0  0  0  0  0  0  0  0  0  0
  -14.3020  -36.2570   24.5330   C 0  0  0  0  0  0  0  0  0  0  0  0
  -17.3350  -38.2190   13.5550   C 0  0  0  0  0  0  0  0  0  0  0  0
  -18.1380  -38.5400   14.7330   N 0  0  0  0  0  0  0  0  0  0  0  0
  -17.8940  -39.9830   14.8510   C 0  0  0  0  0  0  0  0  0  0  0  0
  -16.3620  -39.9680   14.9020   C 0  0  0  0  0  0  0  0  0  0  0  0
  -15.9450  -38.7570   14.0180   C 0  0  0  0  0  0  0  0  0  0  0  0
  -19.6010  -38.1560   14.6320   C 0  0  0  0  0  0  0  0  0  0  0  0
  -24.8940  -30.0890   25.2580   O 0  0  0  0  0  0  0  0  0  0  0  0
  1  2  1  0  0  0  0
  1  6  2  0  0  0  0
  1 38  1  0  0  0  0
  2  3  2  0  0  0  0
  3  4  1  0  0  0  0
  3  7  1  0  0  0  0
  4  5  2  0  0  0  0
  4  9  1  0  0  0  0
  5  6  1  0  0  0  0
  7  8  1  0  0  0  0
  8  9  2  0  0  0  0
  8 11  1  0  0  0  0
  9 10  1  0  0  0  0
 10 20  1  0  0  0  0
 11 12  2  0  0  0  0
 11 16  1  0  0  0  0
 12 13  1  0  0  0  0
 13 14  2  0  0  0  0
 14 15  1  0  0  0  0
 14 17  1  0  0  0  0
 15 16  2  0  0  0  0
 17 18  1  0  0  0  0
 18 37  1  0  0  0  0
 19 20  2  0  0  0  0
 19 24  1  0  0  0  0
 20 21  1  0  0  0  0
 21 22  2  0  0  0  0
 22 23  1  0  0  0  0
 22 25  1  0  0  0  0
 23 24  2  0  0  0  0
 23 26  1  0  0  0  0
 26 30  1  0  0  0  0
 27 28  1  0  0  0  0
 27 31  1  0  0  0  0
 28 29  1  0  0  0  0
 29 30  1  0  0  0  0
 30 31  1  0  0  0  0
 32 33  1  0  0  0  0
 32 36  1  0  0  0  0
 33 34  1  0  0  0  0
 33 37  1  0  0  0  0
 34 35  1  0  0  0  0
 35 36  1  0  0  0  0
M  END
>  <InstanceId>
1D3D_BZT_B_400

>  <ChemCompId>
BZT

>  <PdbId>
1D3D

>  <ChainId>
B

>  <ResidueNumber>
400

>  <InsertionCode>


>  <Model>
1

>  <AltIds>


>  <MissingHeavyAtoms>
0

>  <ObservedFormula>
C32 N2 O2 Br S

>  <Name>
3-(3-BROMO-4-PYRROLIDIN-1-YLMETHYL-BENZYL)-2-[4-PYRROLIDIN-1-YL-ETHOXY)-PHENYL]-BENZO[B]THIOPHEN-6-OL

>  <SystematicName>
3-[[3-bromo-4-(pyrrolidin-1-ylmethyl)phenyl]methyl]-2-[4-(2-pyrrolidin-1-ylethoxy)phenyl]-1-benzothiophen-6-ol

>  <Synonyms>


>  <Type>
NON-POLYMER

>  <Formula>
C32 H35 Br N2 O2 S

>  <MolecularWeight>
591.601

>  <ModifiedDate>
2011-06-04

>  <Parent>


>  <OneLetterCode>


>  <SubcomponentList>


>  <AmbiguousFlag>
N

>  <InChI>
InChI=1S/C32H35BrN2O2S/c33-30-20-23(5-6-25(30)22-35-15-3-4-16-35)19-29-28-12-9-26(36)21-31(28)38-32(29)24-7-10-27(11-8-24)37-18-17-34-13-1-2-14-34/h5-12,20-21,36H,1-4,13-19,22H2

>  <InChIKey>
QVDZMCVSIVITGR-UHFFFAOYSA-N

>  <SMILES>
c1cc(ccc1c2c(c3ccc(cc3s2)O)Cc4ccc(c(c4)Br)CN5CCCC5)OCCN6CCCC6

$$$$
