2P3A_3TL_A_201
  RCSB PDB08012017413D
Coordinates from PDB:2P3A:A:201 Model:1 without hydrogens
 66 69  0  0  0  0            999 V2000
   15.1520    4.3930    8.0640   C 0  0  0  0  0  0  0  0  0  0  0  0
   13.9890    4.1390    7.8160   O 0  0  0  0  0  0  0  0  0  0  0  0
   15.5740    4.5070    9.4450   O 0  0  0  0  0  0  0  0  0  0  0  0
   14.5920    4.4530   10.4690   C 0  0  0  0  0  0  0  0  0  0  0  0
   13.7420    5.6960   10.4120   C 0  0  0  0  0  0  0  0  0  0  0  0
   12.5100    5.6960   11.0640   C 0  0  0  0  0  0  0  0  0  0  0  0
   11.7140    6.8480   11.0300   C 0  0  0  0  0  0  0  0  0  0  0  0
   12.1500    7.9930   10.3570   C 0  0  0  0  0  0  0  0  0  0  0  0
   13.3930    7.9840    9.7110   C 0  0  0  0  0  0  0  0  0  0  0  0
   14.1960    6.8390    9.7460   C 0  0  0  0  0  0  0  0  0  0  0  0
   16.1040    4.6000    7.1750   N 0  0  0  0  0  0  0  0  0  0  0  0
   16.0040    4.2500    5.7870   C 0  0  0  0  0  0  0  0  0  0  0  0
   16.8920    3.0840    5.4300   C 0  0  0  0  0  0  0  0  0  0  0  0
   18.0540    3.0410    5.7890   O 0  0  0  0  0  0  0  0  0  0  0  0
   16.4030    5.4680    4.9770   C 0  0  0  0  0  0  0  0  0  0  0  0
   16.3440    2.1220    4.6850   N 0  0  0  0  0  0  0  0  0  0  0  0
   17.2550    1.1070    4.1680   C 0  0  0  0  0  0  0  0  0  0  0  0
   17.1110    1.0430    2.6750   C 0  0  0  0  0  0  0  0  0  0  0  0
   16.0300    0.8090    2.1630   O 0  0  0  0  0  0  0  0  0  0  0  0
   17.0460   -0.2270    4.8970   C 0  0  0  0  0  0  0  0  0  0  0  0
   17.5690   -0.1690    6.3290   C 0  0  0  0  0  0  0  0  0  0  0  0
   17.6970   -1.3790    4.1160   C 0  0  0  0  0  0  0  0  0  0  0  0
   19.1620    0.2190   -0.0290   C 0  0  0  0  0  0  0  0  0  0  0  0
   20.4630    0.4950    0.4650   O 0  0  0  0  0  0  0  0  0  0  0  0
   18.2400    1.2900    0.5240   C 0  0  0  0  0  0  0  0  0  0  0  0
   18.2190    1.2750    1.9740   N 0  0  0  0  0  0  0  0  0  0  0  0
   18.8020    2.6180    0.0650   C 0  0  0  0  0  0  0  0  0  0  0  0
   17.8760    3.7170    0.4890   C 0  0  0  0  0  0  0  0  0  0  0  0
   18.4020    4.8310    1.1740   C 0  0  0  0  0  0  0  0  0  0  0  0
   16.5110    3.6150    0.1940   C 0  0  0  0  0  0  0  0  0  0  0  0
   17.5370    5.8580    1.5660   C 0  0  0  0  0  0  0  0  0  0  0  0
   15.6560    4.6350    0.5910   C 0  0  0  0  0  0  0  0  0  0  0  0
   16.1670    5.7530    1.2670   C 0  0  0  0  0  0  0  0  0  0  0  0
   17.5870   -1.6870   -1.6450   N 0  0  0  0  0  0  0  0  0  0  0  0
   17.4730   -1.6920   -0.1970   C 0  0  0  0  0  0  0  0  0  0  0  0
   18.7520   -1.1770    0.4290   C 0  0  0  0  0  0  0  0  0  0  0  0
   19.7830   -2.0790    0.0650   O 0  0  0  0  0  0  0  0  0  0  0  0
   17.3220   -3.0950    0.4090   C 0  0  0  0  0  0  0  0  0  0  0  0
   16.7220   -4.1830   -0.4470   C 0  0  0  0  0  0  0  0  0  0  0  0
   15.4240   -4.0520   -0.9200   C 0  0  0  0  0  0  0  0  0  0  0  0
   17.4640   -5.3450   -0.7290   C 0  0  0  0  0  0  0  0  0  0  0  0
   14.8770   -5.0630   -1.6920   C 0  0  0  0  0  0  0  0  0  0  0  0
   16.9160   -6.3710   -1.5020   C 0  0  0  0  0  0  0  0  0  0  0  0
   15.6080   -6.2260   -1.9750   C 0  0  0  0  0  0  0  0  0  0  0  0
   16.8870   -2.2820   -4.4170   N 0  0  0  0  0  0  0  0  0  0  0  0
   17.3080   -0.9790   -3.9290   C 0  0  0  0  0  0  0  0  0  0  0  0
   16.8500   -0.9570   -2.4910   C 0  0  0  0  0  0  0  0  0  0  0  0
   15.8310   -0.3870   -2.1610   O 0  0  0  0  0  0  0  0  0  0  0  0
   16.7270    0.1510   -4.8160   C 0  0  0  0  0  0  0  0  0  0  0  0
   16.8580   -0.0590   -6.3120   C 0  0  0  0  0  0  0  0  0  0  0  0
   17.2800    1.5420   -4.4620   C 0  0  0  0  0  0  0  0  0  0  0  0
   16.9790   -4.4210   -7.0540   N 0  0  0  0  0  0  0  0  0  0  0  0
   16.8900   -4.3350   -5.6100   C 0  0  0  0  0  0  0  0  0  0  0  0
   17.6040   -3.0850   -5.1990   C 0  0  0  0  0  0  0  0  0  0  0  0
   18.7340   -2.8620   -5.6300   O 0  0  0  0  0  0  0  0  0  0  0  0
   17.4830   -5.5860   -4.9820   C 0  0  0  0  0  0  0  0  0  0  0  0
   15.8890   -4.3970   -7.7940   C 0  0  0  0  0  0  0  0  0  0  0  0
   14.8480   -3.8320   -7.4940   O 0  0  0  0  0  0  0  0  0  0  0  0
   15.9360   -5.0730   -9.0630   O 0  0  0  0  0  0  0  0  0  0  0  0
   14.6990   -5.0860   -9.7970   C 0  0  0  0  0  0  0  0  0  0  0  0
   13.8220   -6.2860   -9.5060   C 0  0  0  0  0  0  0  0  0  0  0  0
   12.7720   -6.5710  -10.3930   C 0  0  0  0  0  0  0  0  0  0  0  0
   11.9270   -7.6610  -10.1740   C 0  0  0  0  0  0  0  0  0  0  0  0
   12.1190   -8.4920   -9.0670   C 0  0  0  0  0  0  0  0  0  0  0  0
   13.1690   -8.2110   -8.1710   C 0  0  0  0  0  0  0  0  0  0  0  0
   14.0240   -7.1180   -8.3970   C 0  0  0  0  0  0  0  0  0  0  0  0
  1  2  2  0  0  0  0
  1  3  1  0  0  0  0
  1 11  1  0  0  0  0
  3  4  1  0  0  0  0
  4  5  1  0  0  0  0
  5  6  2  0  0  0  0
  5 10  1  0  0  0  0
  6  7  1  0  0  0  0
  7  8  2  0  0  0  0
  8  9  1  0  0  0  0
  9 10  2  0  0  0  0
 11 12  1  0  0  0  0
 12 13  1  0  0  0  0
 12 15  1  0  0  0  0
 13 14  2  0  0  0  0
 13 16  1  0  0  0  0
 16 17  1  0  0  0  0
 17 18  1  0  0  0  0
 17 20  1  0  0  0  0
 18 19  2  0  0  0  0
 18 26  1  0  0  0  0
 20 21  1  0  0  0  0
 20 22  1  0  0  0  0
 23 24  1  0  0  0  0
 23 25  1  0  0  0  0
 23 36  1  0  0  0  0
 25 26  1  0  0  0  0
 25 27  1  0  0  0  0
 27 28  1  0  0  0  0
 28 29  2  0  0  0  0
 28 30  1  0  0  0  0
 29 31  1  0  0  0  0
 30 32  2  0  0  0  0
 31 33  2  0  0  0  0
 32 33  1  0  0  0  0
 34 35  1  0  0  0  0
 34 47  1  0  0  0  0
 35 36  1  0  0  0  0
 35 38  1  0  0  0  0
 36 37  1  0  0  0  0
 38 39  1  0  0  0  0
 39 40  2  0  0  0  0
 39 41  1  0  0  0  0
 40 42  1  0  0  0  0
 41 43  2  0  0  0  0
 42 44  2  0  0  0  0
 43 44  1  0  0  0  0
 45 46  1  0  0  0  0
 45 54  1  0  0  0  0
 46 47  1  0  0  0  0
 46 49  1  0  0  0  0
 47 48  2  0  0  0  0
 49 50  1  0  0  0  0
 49 51  1  0  0  0  0
 52 53  1  0  0  0  0
 52 57  1  0  0  0  0
 53 54  1  0  0  0  0
 53 56  1  0  0  0  0
 54 55  2  0  0  0  0
 57 58  2  0  0  0  0
 57 59  1  0  0  0  0
 59 60  1  0  0  0  0
 60 61  1  0  0  0  0
 61 62  2  0  0  0  0
 61 66  1  0  0  0  0
 62 63  1  0  0  0  0
 63 64  2  0  0  0  0
 64 65  1  0  0  0  0
 65 66  2  0  0  0  0
M  END
>  <InstanceId>
2P3A_3TL_A_201

>  <ChemCompId>
3TL

>  <PdbId>
2P3A

>  <ChainId>
A

>  <ResidueNumber>
201

>  <InsertionCode>


>  <Model>
1

>  <AltIds>


>  <MissingHeavyAtoms>
0

>  <ObservedFormula>
C50 N6 O10

>  <Name>
benzyl [(1S,4S,7S,8R,9R,10S,13S,16S)-7,10-dibenzyl-8,9-dihydroxy-1,16-dimethyl-4,13-bis(1-methylethyl)-2,5,12,15,18-pentaoxo-20-phenyl-19-oxa-3,6,11,14,17-pentaazaicos-1-yl]carbamate

>  <SystematicName>
phenylmethyl N-[(2S)-1-[[(2S)-1-[[(2S,3R,4R,5S)-3,4-dihydroxy-5-[[(2S)-3-methyl-2-[[(2S)-2-(phenylmethoxycarbonylamino)propanoyl]amino]butanoyl]amino]-1,6-diphenyl-hexan-2-yl]amino]-3-methyl-1-oxo-butan-2-yl]amino]-1-oxo-propan-2-yl]carbamate

>  <Synonyms>
TL-3, C2 symmetric inhibitor

>  <Type>
peptide-like

>  <Formula>
C50 H64 N6 O10

>  <MolecularWeight>
909.077

>  <ModifiedDate>
2011-06-04

>  <Parent>


>  <OneLetterCode>


>  <SubcomponentList>
PHQ ALA VAL PHL PHL VAL ALA PHQ

>  <AmbiguousFlag>
N

>  <InChI>
InChI=1S/C50H64N6O10/c1-31(2)41(55-45(59)33(5)51-49(63)65-29-37-23-15-9-16-24-37)47(61)53-39(27-35-19-11-7-12-20-35)43(57)44(58)40(28-36-21-13-8-14-22-36)54-48(62)42(32(3)4)56-46(60)34(6)52-50(64)66-30-38-25-17-10-18-26-38/h7-26,31-34,39-44,57-58H,27-30H2,1-6H3,(H,51,63)(H,52,64)(H,53,61)(H,54,62)(H,55,59)(H,56,60)/t33-,34-,39-,40-,41-,42-,43+,44+/m0/s1

>  <InChIKey>
BJJPNOGMLLUCER-KUTQPOQPSA-N

>  <SMILES>
C[C@@H](C(=O)N[C@@H](C(C)C)C(=O)N[C@@H](Cc1ccccc1)[C@H]([C@@H]([C@H](Cc2ccccc2)NC(=O)[C@H](C(C)C)NC(=O)[C@H](C)NC(=O)OCc3ccccc3)O)O)NC(=O)OCc4ccccc4

$$$$
