1D2E_GDP_A_1301
  RCSB PDB08012014443D
Coordinates from PDB:1D2E:A:1301 Model:1 without hydrogens
 28 30  0  0  0  0            999 V2000
   15.0110   -9.2550   51.5850   P 0  0  0  0  0  0  0  0  0  0  0  0
   13.9500   -8.2270   51.4310   O 0  0  0  0  0  0  0  0  0  0  0  0
   16.3970   -8.8090   51.3940   O 0  0  0  0  0  0  0  0  0  0  0  0
   14.9260   -9.9600   52.8640   O 0  0  0  0  0  0  0  0  0  0  0  0
   14.7190  -10.3520   50.4300   O 0  0  0  0  0  0  0  0  0  0  0  0
   15.7050  -11.0870   49.3880   P 0  0  0  0  0  0  0  0  0  0  0  0
   16.7180  -11.7660   50.1830   O 0  0  0  0  0  0  0  0  0  0  0  0
   16.1670  -10.1300   48.3710   O 0  0  0  0  0  0  0  0  0  0  0  0
   14.6570  -12.0580   48.6940   O 0  0  0  0  0  0  0  0  0  0  0  0
   14.0320  -13.1030   49.4630   C 0  0  0  0  0  0  0  0  0  0  0  0
   13.6600  -14.2930   48.5890   C 0  0  0  0  0  0  0  0  0  0  0  0
   12.7790  -13.7980   47.5370   O 0  0  0  0  0  0  0  0  0  0  0  0
   14.8410  -14.9450   47.8800   C 0  0  0  0  0  0  0  0  0  0  0  0
   14.5130  -16.3390   47.8370   O 0  0  0  0  0  0  0  0  0  0  0  0
   14.7960  -14.2460   46.5010   C 0  0  0  0  0  0  0  0  0  0  0  0
   15.4360  -15.0050   45.4610   O 0  0  0  0  0  0  0  0  0  0  0  0
   13.3110  -14.0890   46.2500   C 0  0  0  0  0  0  0  0  0  0  0  0
   13.0310  -12.9640   45.3100   N 0  0  0  0  0  0  0  0  0  0  0  0
   13.5230  -11.6600   45.2960   C 0  0  0  0  0  0  0  0  0  0  0  0
   13.0810  -10.9130   44.3050   N 0  0  0  0  0  0  0  0  0  0  0  0
   12.2370  -11.7830   43.6180   C 0  0  0  0  0  0  0  0  0  0  0  0
   11.4500  -11.6020   42.4490   C 0  0  0  0  0  0  0  0  0  0  0  0
   11.3410  -10.5700   41.7410   O 0  0  0  0  0  0  0  0  0  0  0  0
   10.7290  -12.7430   42.0810   N 0  0  0  0  0  0  0  0  0  0  0  0
   10.7530  -13.9570   42.7630   C 0  0  0  0  0  0  0  0  0  0  0  0
   10.0130  -14.9500   42.2960   N 0  0  0  0  0  0  0  0  0  0  0  0
   11.4940  -14.1540   43.8660   N 0  0  0  0  0  0  0  0  0  0  0  0
   12.2010  -13.0460   44.2380   C 0  0  0  0  0  0  0  0  0  0  0  0
  1  2  2  0  0  0  0
  1  3  1  0  0  0  0
  1  4  1  0  0  0  0
  1  5  1  0  0  0  0
  5  6  1  0  0  0  0
  6  7  2  0  0  0  0
  6  8  1  0  0  0  0
  6  9  1  0  0  0  0
  9 10  1  0  0  0  0
 10 11  1  0  0  0  0
 11 12  1  0  0  0  0
 11 13  1  0  0  0  0
 12 17  1  0  0  0  0
 13 14  1  0  0  0  0
 13 15  1  0  0  0  0
 15 16  1  0  0  0  0
 15 17  1  0  0  0  0
 17 18  1  0  0  0  0
 18 19  1  0  0  0  0
 18 28  1  0  0  0  0
 19 20  2  0  0  0  0
 20 21  1  0  0  0  0
 21 22  1  0  0  0  0
 21 28  2  0  0  0  0
 22 23  2  0  0  0  0
 22 24  1  0  0  0  0
 24 25  1  0  0  0  0
 25 26  1  0  0  0  0
 25 27  2  0  0  0  0
 27 28  1  0  0  0  0
M  END
>  <InstanceId>
1D2E_GDP_A_1301

>  <ChemCompId>
GDP

>  <PdbId>
1D2E

>  <ChainId>
A

>  <ResidueNumber>
1301

>  <InsertionCode>


>  <Model>
1

>  <AltIds>


>  <MissingHeavyAtoms>
0

>  <ObservedFormula>
C10 N5 O11 P2

>  <Name>
GUANOSINE-5'-DIPHOSPHATE

>  <SystematicName>
[(2R,3S,4R,5R)-5-(2-azanyl-6-oxidanylidene-1H-purin-9-yl)-3,4-bis(oxidanyl)oxolan-2-yl]methyl phosphono hydrogen phosphate

>  <Synonyms>


>  <Type>
RNA LINKING

>  <Formula>
C10 H15 N5 O11 P2

>  <MolecularWeight>
443.201

>  <ModifiedDate>
2014-05-12

>  <Parent>
G

>  <OneLetterCode>
G

>  <SubcomponentList>


>  <AmbiguousFlag>
N

>  <InChI>
InChI=1S/C10H15N5O11P2/c11-10-13-7-4(8(18)14-10)12-2-15(7)9-6(17)5(16)3(25-9)1-24-28(22,23)26-27(19,20)21/h2-3,5-6,9,16-17H,1H2,(H,22,23)(H2,19,20,21)(H3,11,13,14,18)/t3-,5-,6-,9-/m1/s1

>  <InChIKey>
QGWNDRXFNXRZMB-UUOKFMHZSA-N

>  <SMILES>
c1nc2c(n1[C@H]3[C@@H]([C@@H]([C@H](O3)CO[P@](=O)(O)OP(=O)(O)O)O)O)N=C(NC2=O)N

$$$$
