4ZT8_CYT_A_304
  RCSB PDB08022000413D
Coordinates from PDB:4ZT8:A:304 Model:1 without hydrogens
  8  8  0  0  0  0            999 V2000
  -17.2960   14.7390   -3.1920   N 0  0  0  0  0  0  0  0  0  0  0  0
  -17.3300   14.9970   -1.8780   C 0  0  0  0  0  0  0  0  0  0  0  0
  -15.0420   15.4250   -3.2960   N 0  0  0  0  0  0  0  0  0  0  0  0
  -16.1630   14.9520   -3.8880   C 0  0  0  0  0  0  0  0  0  0  0  0
  -16.1320   14.7140   -5.1100   O 0  0  0  0  0  0  0  0  0  0  0  0
  -18.4340   14.8010   -1.1160   N 0  0  0  0  0  0  0  0  0  0  0  0
  -16.1870   15.4690   -1.2630   C 0  0  0  0  0  0  0  0  0  0  0  0
  -15.0340   15.6890   -1.9870   C 0  0  0  0  0  0  0  0  0  0  0  0
  1  2  1  0  0  0  0
  1  4  1  0  0  0  0
  2  6  1  0  0  0  0
  2  7  2  0  0  0  0
  3  4  1  0  0  0  0
  3  8  2  0  0  0  0
  4  5  2  0  0  0  0
  7  8  1  0  0  0  0
M  END
>  <InstanceId>
4ZT8_CYT_A_304

>  <ChemCompId>
CYT

>  <PdbId>
4ZT8

>  <ChainId>
A

>  <ResidueNumber>
304

>  <InsertionCode>


>  <Model>
1

>  <AltIds>


>  <MissingHeavyAtoms>
0

>  <ObservedFormula>
C4 N3 O

>  <Name>
6-AMINOPYRIMIDIN-2(1H)-ONE

>  <SystematicName>
4-amino-3H-pyrimidin-2-one

>  <Synonyms>
CYTOSINE

>  <Type>
NON-POLYMER

>  <Formula>
C4 H5 N3 O

>  <MolecularWeight>
111.102

>  <ModifiedDate>
2020-06-17

>  <Parent>


>  <OneLetterCode>


>  <SubcomponentList>


>  <AmbiguousFlag>


>  <InChI>
InChI=1S/C4H5N3O/c5-3-1-2-6-4(8)7-3/h1-2H,(H3,5,6,7,8)

>  <InChIKey>
OPTASPLRGRRNAP-UHFFFAOYSA-N

>  <SMILES>
C1=C(NC(=O)N=C1)N

$$$$
