6GUE_FB8_A_301
  RCSB PDB08022004523D
Coordinates from PDB:6GUE:A:301 Model:1 without hydrogens
 26 28  0  0  0  0            999 V2000
   -7.9560  -19.7050   21.2480   C 0  0  0  0  0  0  0  0  0  0  0  0
   -4.5100  -24.1550   23.3430   C 0  0  0  0  0  0  0  0  0  0  0  0
   -8.6010  -20.6600   22.1560   C 0  0  0  0  0  0  0  0  0  0  0  0
   -9.9760  -20.6310   22.3140   C 0  0  0  0  0  0  0  0  0  0  0  0
   -4.9210  -25.2440   25.4420   C 0  0  0  0  0  0  0  0  0  0  0  0
  -10.5290  -21.5030   23.2180   C 0  0  0  0  0  0  0  0  0  0  0  0
   -8.4730  -22.3440   23.7040   C 0  0  0  0  0  0  0  0  0  0  0  0
   -6.5880  -23.7950   24.4680   C 0  0  0  0  0  0  0  0  0  0  0  0
   -6.1650  -24.6420   25.4950   C 0  0  0  0  0  0  0  0  0  0  0  0
   -4.1130  -25.0020   24.3540   C 0  0  0  0  0  0  0  0  0  0  0  0
   -1.5150  -24.7720   23.2520   C 0  0  0  0  0  0  0  0  0  0  0  0
   -7.6240  -17.9470   20.0070   N 0  0  0  0  0  0  0  0  0  0  0  0
   -9.8120  -22.3970   23.8930   N 0  0  0  0  0  0  0  0  0  0  0  0
   -8.4840  -18.4960   20.8930   C 0  0  0  0  0  0  0  0  0  0  0  0
   -7.8820  -23.2540   24.5000   N 0  0  0  0  0  0  0  0  0  0  0  0
   -5.2670  -18.1940   19.2870   C 0  0  0  0  0  0  0  0  0  0  0  0
   -6.4920  -18.6400   19.9870   C 0  0  0  0  0  0  0  0  0  0  0  0
   -2.5160  -25.7330   24.3120   S 0  0  0  0  0  0  0  0  0  0  0  0
   -1.9720  -25.5840   25.6330   O 0  0  0  0  0  0  0  0  0  0  0  0
   -2.6520  -27.0630   23.7960   O 0  0  0  0  0  0  0  0  0  0  0  0
   -5.7480  -23.5650   23.3930   C 0  0  0  0  0  0  0  0  0  0  0  0
   -7.8310  -21.5180   22.8690   N 0  0  0  0  0  0  0  0  0  0  0  0
   -6.7000  -19.8060   20.6130   N 0  0  0  0  0  0  0  0  0  0  0  0
   -5.8310  -21.0060   20.6190   C 0  0  0  0  0  0  0  0  0  0  0  0
   -4.5120  -20.7400   21.3330   C 0  0  0  0  0  0  0  0  0  0  0  0
   -5.6710  -21.5540   19.2210   C 0  0  0  0  0  0  0  0  0  0  0  0
 19 18  2  0  0  0  0
 11 18  1  0  0  0  0
 18 20  2  0  0  0  0
 18 10  1  0  0  0  0
  2 10  2  0  0  0  0
  2 21  1  0  0  0  0
 10  5  1  0  0  0  0
 21  8  2  0  0  0  0
  5  9  2  0  0  0  0
  8  9  1  0  0  0  0
  8 15  1  0  0  0  0
 15  7  1  0  0  0  0
 26 24  1  0  0  0  0
  7 13  2  0  0  0  0
  7 22  1  0  0  0  0
 13  6  1  0  0  0  0
 22  3  2  0  0  0  0
 24 25  1  0  0  0  0
 24 23  1  0  0  0  0
  6  4  2  0  0  0  0
  3  4  1  0  0  0  0
  3  1  1  0  0  0  0
 23  1  1  0  0  0  0
 23 17  1  0  0  0  0
  1 14  2  0  0  0  0
 17 16  1  0  0  0  0
 17 12  2  0  0  0  0
 14 12  1  0  0  0  0
M  END
>  <InstanceId>
6GUE_FB8_A_301

>  <ChemCompId>
FB8

>  <PdbId>
6GUE

>  <ChainId>
A

>  <ResidueNumber>
301

>  <InsertionCode>


>  <Model>
1

>  <AltIds>


>  <MissingHeavyAtoms>
0

>  <ObservedFormula>
C18 N5 O2 S

>  <Name>
4-(2-methyl-3-propan-2-yl-imidazol-4-yl)-~{N}-(4-methylsulfonylphenyl)pyrimidin-2-amine

>  <SystematicName>
4-(2-methyl-3-propan-2-yl-imidazol-4-yl)-~{N}-(4-methylsulfonylphenyl)pyrimidin-2-amine

>  <Synonyms>


>  <Type>
NON-POLYMER

>  <Formula>
C18 H21 N5 O2 S

>  <MolecularWeight>
371.457

>  <ModifiedDate>
2018-11-30

>  <Parent>


>  <OneLetterCode>


>  <SubcomponentList>


>  <AmbiguousFlag>
N

>  <InChI>
InChI=1S/C18H21N5O2S/c1-12(2)23-13(3)20-11-17(23)16-9-10-19-18(22-16)21-14-5-7-15(8-6-14)26(4,24)25/h5-12H,1-4H3,(H,19,21,22)

>  <InChIKey>
WJRRGYBTGDJBFX-UHFFFAOYSA-N

>  <SMILES>
Cc1ncc(n1C(C)C)c2ccnc(n2)Nc3ccc(cc3)S(=O)(=O)C

$$$$
