1FAO_4IP_A_274
  RCSB PDB08012014533D
Coordinates from PDB:1FAO:A:274 Model:1 without hydrogens
 28 28  0  0  0  0            999 V2000
   25.9280    6.5440    8.2430   C 0  0  0  0  0  0  0  0  0  0  0  0
   26.7630    7.6030    7.7540   O 0  0  0  0  0  0  0  0  0  0  0  0
   24.9410    7.0920    9.2600   C 0  0  0  0  0  0  0  0  0  0  0  0
   25.6410    7.6550   10.3600   O 0  0  0  0  0  0  0  0  0  0  0  0
   24.0450    5.9750    9.7510   C 0  0  0  0  0  0  0  0  0  0  0  0
   23.0660    6.5010   10.6580   O 0  0  0  0  0  0  0  0  0  0  0  0
   24.8450    4.8640   10.4260   C 0  0  0  0  0  0  0  0  0  0  0  0
   23.9780    3.7670   10.7620   O 0  0  0  0  0  0  0  0  0  0  0  0
   26.0020    4.3490    9.5720   C 0  0  0  0  0  0  0  0  0  0  0  0
   26.8830    3.5660   10.3910   O 0  0  0  0  0  0  0  0  0  0  0  0
   26.7960    5.4440    8.8480   C 0  0  0  0  0  0  0  0  0  0  0  0
   27.5830    4.8550    7.8210   O 0  0  0  0  0  0  0  0  0  0  0  0
   26.3810    8.4170    6.3980   P 0  0  0  0  0  0  0  0  0  0  0  0
   27.1890    9.7010    6.4810   O 0  0  0  0  0  0  0  0  0  0  0  0
   24.8780    8.6280    6.4550   O 0  0  0  0  0  0  0  0  0  0  0  0
   26.8040    7.5350    5.2420   O 0  0  0  0  0  0  0  0  0  0  0  0
   21.4830    6.3590   10.3300   P 0  0  0  0  0  0  0  0  0  0  0  0
   20.7630    7.0130   11.4960   O 0  0  0  0  0  0  0  0  0  0  0  0
   21.2520    7.0410    8.9930   O 0  0  0  0  0  0  0  0  0  0  0  0
   21.2280    4.8560   10.2690   O 0  0  0  0  0  0  0  0  0  0  0  0
   23.5020    3.4960   12.2940   P 0  0  0  0  0  0  0  0  0  0  0  0
   24.2330    4.4920   13.1770   O 0  0  0  0  0  0  0  0  0  0  0  0
   22.0040    3.7180   12.2810   O 0  0  0  0  0  0  0  0  0  0  0  0
   23.8730    2.0540   12.6080   O 0  0  0  0  0  0  0  0  0  0  0  0
   27.6430    2.2530    9.8030   P 0  0  0  0  0  0  0  0  0  0  0  0
   28.0640    1.4830   11.0420   O 0  0  0  0  0  0  0  0  0  0  0  0
   26.6090    1.5200    8.9610   O 0  0  0  0  0  0  0  0  0  0  0  0
   28.8090    2.7970    8.9930   O 0  0  0  0  0  0  0  0  0  0  0  0
  1  2  1  0  0  0  0
  1  3  1  0  0  0  0
  1 11  1  0  0  0  0
  2 13  1  0  0  0  0
  3  4  1  0  0  0  0
  3  5  1  0  0  0  0
  5  6  1  0  0  0  0
  5  7  1  0  0  0  0
  6 17  1  0  0  0  0
  7  8  1  0  0  0  0
  7  9  1  0  0  0  0
  8 21  1  0  0  0  0
  9 10  1  0  0  0  0
  9 11  1  0  0  0  0
 10 25  1  0  0  0  0
 11 12  1  0  0  0  0
 13 14  2  0  0  0  0
 13 15  1  0  0  0  0
 13 16  1  0  0  0  0
 17 18  2  0  0  0  0
 17 19  1  0  0  0  0
 17 20  1  0  0  0  0
 21 22  1  0  0  0  0
 21 23  1  0  0  0  0
 21 24  2  0  0  0  0
 25 26  1  0  0  0  0
 25 27  2  0  0  0  0
 25 28  1  0  0  0  0
M  END
>  <InstanceId>
1FAO_4IP_A_274

>  <ChemCompId>
4IP

>  <PdbId>
1FAO

>  <ChainId>
A

>  <ResidueNumber>
274

>  <InsertionCode>


>  <Model>
1

>  <AltIds>


>  <MissingHeavyAtoms>
0

>  <ObservedFormula>
C6 O18 P4

>  <Name>
INOSITOL-(1,3,4,5)-TETRAKISPHOSPHATE

>  <SystematicName>
[(1S,2S,4S,5R)-2,4-bis(oxidanyl)-3,5,6-triphosphonooxy-cyclohexyl] dihydrogen phosphate

>  <Synonyms>


>  <Type>
NON-POLYMER

>  <Formula>
C6 H16 O18 P4

>  <MolecularWeight>
500.075

>  <ModifiedDate>
2014-10-08

>  <Parent>


>  <OneLetterCode>


>  <SubcomponentList>


>  <AmbiguousFlag>
N

>  <InChI>
InChI=1S/C6H16O18P4/c7-1-3(21-25(9,10)11)2(8)5(23-27(15,16)17)6(24-28(18,19)20)4(1)22-26(12,13)14/h1-8H,(H2,9,10,11)(H2,12,13,14)(H2,15,16,17)(H2,18,19,20)/t1-,2-,3-,4+,5-,6-/m0/s1

>  <InChIKey>
CIPFCGZLFXVXBG-CNWJWELYSA-N

>  <SMILES>
[C@H]1([C@H](C([C@H]([C@H](C1OP(=O)(O)O)O)OP(=O)(O)O)OP(=O)(O)O)OP(=O)(O)O)O

$$$$
