5NEE_8V5_A_302
  RCSB PDB08022002323D
Coordinates from PDB:5NEE:A:302 Model:1 without hydrogens
 22 24  0  0  0  0            999 V2000
   -5.8300    0.9270   16.5530   S 0  0  0  0  0  0  0  0  0  0  0  0
   -4.9770    2.1220   15.5800   C 0  0  0  0  0  0  0  0  0  0  0  0
   -5.8140    3.4210   14.8170   S 0  0  0  0  0  0  0  0  0  0  0  0
   -4.3240    4.0920   14.2150   C 0  0  0  0  0  0  0  0  0  0  0  0
   -3.2520    3.3090   14.6030   C 0  0  0  0  0  0  0  0  0  0  0  0
   -3.6200    2.1930   15.3750   C 0  0  0  0  0  0  0  0  0  0  0  0
   -4.1860    5.3020   13.4290   C 0  0  0  0  0  0  0  0  0  0  0  0
   -3.2200    6.2000   13.1540   C 0  0  0  0  0  0  0  0  0  0  0  0
   -3.6970    7.1750   12.3050   N 0  0  0  0  0  0  0  0  0  0  0  0
   -4.9450    6.8360   12.0870   C 0  0  0  0  0  0  0  0  0  0  0  0
   -5.3170    5.7130   12.7440   O 0  0  0  0  0  0  0  0  0  0  0  0
   -5.9040    7.5040   11.1390   C 0  0  0  0  0  0  0  0  0  0  0  0
   -7.2310    1.1050   16.3310   O 0  0  0  0  0  0  0  0  0  0  0  0
   -5.2900    1.0400   17.8720   O 0  0  0  0  0  0  0  0  0  0  0  0
   -5.4160   -0.4900   15.9800   N 0  0  0  0  0  0  0  0  0  0  0  0
   -6.9960    6.9800   10.9150   O 0  0  0  0  0  0  0  0  0  0  0  0
   -5.5130    8.6250   10.5320   N 0  0  0  0  0  0  0  0  0  0  0  0
   -5.2970    9.7510   11.2600   C 0  0  0  0  0  0  0  0  0  0  0  0
   -3.8460   10.2340   11.2390   C 0  0  0  0  0  0  0  0  0  0  0  0
   -2.9870    9.2570   10.6470   O 0  0  0  0  0  0  0  0  0  0  0  0
   -3.4380    8.7980    9.3000   C 0  0  0  0  0  0  0  0  0  0  0  0
   -4.9280    8.5720    9.2200   C 0  0  0  0  0  0  0  0  0  0  0  0
 22 21  1  0  0  0  0
 22 17  1  0  0  0  0
 21 20  1  0  0  0  0
 17 12  1  0  0  0  0
 17 18  1  0  0  0  0
 20 19  1  0  0  0  0
 16 12  2  0  0  0  0
 12 10  1  0  0  0  0
 19 18  1  0  0  0  0
 10  9  2  0  0  0  0
 10 11  1  0  0  0  0
  9  8  1  0  0  0  0
 11  7  1  0  0  0  0
  8  7  2  0  0  0  0
  7  4  1  0  0  0  0
  4  5  2  0  0  0  0
  4  3  1  0  0  0  0
  5  6  1  0  0  0  0
  3  2  1  0  0  0  0
  6  2  2  0  0  0  0
  2  1  1  0  0  0  0
 15  1  1  0  0  0  0
 13  1  2  0  0  0  0
  1 14  2  0  0  0  0
M  END
>  <InstanceId>
5NEE_8V5_A_302

>  <ChemCompId>
8V5

>  <PdbId>
5NEE

>  <ChainId>
A

>  <ResidueNumber>
302

>  <InsertionCode>


>  <Model>
1

>  <AltIds>


>  <MissingHeavyAtoms>
0

>  <ObservedFormula>
C12 N3 O5 S2

>  <Name>
5-(2-morpholin-4-ylcarbonyl-1,3-oxazol-5-yl)thiophene-2-sulfonamide

>  <SystematicName>
5-(2-morpholin-4-ylcarbonyl-1,3-oxazol-5-yl)thiophene-2-sulfonamide

>  <Synonyms>


>  <Type>
NON-POLYMER

>  <Formula>
C12 H13 N3 O5 S2

>  <MolecularWeight>
343.379

>  <ModifiedDate>
2017-12-01

>  <Parent>


>  <OneLetterCode>


>  <SubcomponentList>


>  <AmbiguousFlag>
N

>  <InChI>
InChI=1S/C12H13N3O5S2/c13-22(17,18)10-2-1-9(21-10)8-7-14-11(20-8)12(16)15-3-5-19-6-4-15/h1-2,7H,3-6H2,(H2,13,17,18)

>  <InChIKey>
SEWMPRFPDFLTDN-UHFFFAOYSA-N

>  <SMILES>
c1cc(sc1c2cnc(o2)C(=O)N3CCOCC3)S(=O)(=O)N

$$$$
