2H21_SAM_A_801
  RCSB PDB08012017063D
Coordinates from PDB:2H21:A:801 Model:1 without hydrogens
 27 29  0  0  0  0            999 V2000
   71.0000  131.5610   50.0280   N 0  0  0  0  0  0  0  0  0  0  0  0
   69.6630  131.1270   50.4510   C 0  0  0  0  0  0  0  0  0  0  0  0
   68.7050  131.0350   49.2120   C 0  0  0  0  0  0  0  0  0  0  0  0
   67.4900  131.3030   49.3420   O 0  0  0  0  0  0  0  0  0  0  0  0
   69.1600  130.6940   48.0980   O 0  5  0  0  0  0  0  0  0  0  0  0
   69.1150  132.0950   51.5350   C 0  0  0  0  0  0  0  0  0  0  0  0
   69.6760  131.9000   52.9120   C 0  0  0  0  0  0  0  0  0  0  0  0
   68.8410  131.0100   53.8940   S 0  3  0  0  0  0  0  0  0  0  0  0
   68.5900  132.0440   55.3260   C 0  0  0  0  0  0  0  0  0  0  0  0
   70.1530  129.9610   54.5510   C 0  0  0  0  0  0  0  0  0  0  0  0
   70.6800  128.8680   53.6270   C 0  0  0  0  0  0  0  0  0  0  0  0
   71.4840  129.4410   52.5590   O 0  0  0  0  0  0  0  0  0  0  0  0
   71.6030  127.8680   54.2940   C 0  0  0  0  0  0  0  0  0  0  0  0
   70.9070  126.8090   54.9350   O 0  0  0  0  0  0  0  0  0  0  0  0
   72.4740  127.4060   53.1660   C 0  0  0  0  0  0  0  0  0  0  0  0
   71.9420  126.3750   52.3590   O 0  0  0  0  0  0  0  0  0  0  0  0
   72.7080  128.7410   52.4600   C 0  0  0  0  0  0  0  0  0  0  0  0
   73.8190  129.5430   53.0540   N 0  0  0  0  0  0  0  0  0  0  0  0
   73.7850  130.7130   53.8080   C 0  0  0  0  0  0  0  0  0  0  0  0
   74.9620  131.1550   54.1850   N 0  0  0  0  0  0  0  0  0  0  0  0
   75.8450  130.2200   53.6450   C 0  0  0  0  0  0  0  0  0  0  0  0
   77.2680  130.0880   53.6820   C 0  0  0  0  0  0  0  0  0  0  0  0
   78.0670  130.9540   54.3050   N 0  0  0  0  0  0  0  0  0  0  0  0
   77.8400  129.0220   53.0360   N 0  0  0  0  0  0  0  0  0  0  0  0
   77.0420  128.1340   52.3920   C 0  0  0  0  0  0  0  0  0  0  0  0
   75.6930  128.1480   52.2880   N 0  0  0  0  0  0  0  0  0  0  0  0
   75.1530  129.2200   52.9440   C 0  0  0  0  0  0  0  0  0  0  0  0
  1  2  1  0  0  0  0
  2  3  1  0  0  0  0
  2  6  1  0  0  0  0
  3  4  2  0  0  0  0
  3  5  1  0  0  0  0
  6  7  1  0  0  0  0
  7  8  1  0  0  0  0
  8  9  1  0  0  0  0
  8 10  1  0  0  0  0
 10 11  1  0  0  0  0
 11 12  1  0  0  0  0
 11 13  1  0  0  0  0
 12 17  1  0  0  0  0
 13 14  1  0  0  0  0
 13 15  1  0  0  0  0
 15 16  1  0  0  0  0
 15 17  1  0  0  0  0
 17 18  1  0  0  0  0
 18 19  1  0  0  0  0
 18 27  1  0  0  0  0
 19 20  2  0  0  0  0
 20 21  1  0  0  0  0
 21 22  1  0  0  0  0
 21 27  2  0  0  0  0
 22 23  1  0  0  0  0
 22 24  2  0  0  0  0
 24 25  1  0  0  0  0
 25 26  2  0  0  0  0
 26 27  1  0  0  0  0
M  CHG  2   5  -1   8   1
M  END
>  <InstanceId>
2H21_SAM_A_801

>  <ChemCompId>
SAM

>  <PdbId>
2H21

>  <ChainId>
A

>  <ResidueNumber>
801

>  <InsertionCode>


>  <Model>
1

>  <AltIds>


>  <MissingHeavyAtoms>
0

>  <ObservedFormula>
C15 N6 O5 S

>  <Name>
S-ADENOSYLMETHIONINE

>  <SystematicName>
(2S)-2-amino-4-[[(2S,3S,4R,5R)-5-(6-aminopurin-9-yl)-3,4-dihydroxy-oxolan-2-yl]methyl-methyl-sulfonio]butanoate

>  <Synonyms>


>  <Type>
NON-POLYMER

>  <Formula>
C15 H22 N6 O5 S

>  <MolecularWeight>
398.437

>  <ModifiedDate>
2011-06-04

>  <Parent>


>  <OneLetterCode>


>  <SubcomponentList>


>  <AmbiguousFlag>
N

>  <InChI>
InChI=1S/C15H22N6O5S/c1-27(3-2-7(16)15(24)25)4-8-10(22)11(23)14(26-8)21-6-20-9-12(17)18-5-19-13(9)21/h5-8,10-11,14,22-23H,2-4,16H2,1H3,(H2-,17,18,19,24,25)/t7-,8+,10+,11+,14+,27-/m0/s1

>  <InChIKey>
MEFKEPWMEQBLKI-FCKMPRQPSA-N

>  <SMILES>
C[S@@+](CC[C@@H](C(=O)[O-])N)C[C@@H]1[C@H]([C@H]([C@@H](O1)n2cnc3c2ncnc3N)O)O

$$$$
