4Q1X_017_A_101
  RCSB PDB08012022573D
Coordinates from PDB:4Q1X:A:101 Model:1 without hydrogens
 38 41  0  0  0  0            999 V2000
   14.2650   35.0130   18.2520   N 0  0  0  0  0  0  0  0  0  0  0  0
   15.1800   34.4890   17.3980   C 0  0  0  0  0  0  0  0  0  0  0  0
   16.2710   35.2340   16.9310   C 0  0  0  0  0  0  0  0  0  0  0  0
   17.1810   34.6470   16.0480   C 0  0  0  0  0  0  0  0  0  0  0  0
   17.0160   33.3270   15.6140   C 0  0  0  0  0  0  0  0  0  0  0  0
   15.9230   32.6060   16.0790   C 0  0  0  0  0  0  0  0  0  0  0  0
   15.0040   33.1850   16.9530   C 0  0  0  0  0  0  0  0  0  0  0  0
   18.0450   32.5820   14.6160   S 0  0  0  0  0  0  0  0  0  0  0  0
   17.3450   31.5000   13.9740   O 0  0  0  0  0  0  0  0  0  0  0  0
   18.5960   33.4760   13.6520   O 0  0  0  0  0  0  0  0  0  0  0  0
   19.3160   31.9860   15.4240   N 0  0  0  0  0  0  0  0  0  0  0  0
   19.9950   32.9950   16.2780   C 0  0  0  0  0  0  0  0  0  0  0  0
   21.4910   32.6970   16.4040   C 0  0  0  0  0  0  0  0  0  0  0  0
   22.1930   32.6270   15.0410   C 0  0  0  0  0  0  0  0  0  0  0  0
   22.1490   33.7440   17.3010   C 0  0  0  0  0  0  0  0  0  0  0  0
   19.0320   30.7370   16.1420   C 0  0  0  0  0  0  0  0  0  0  0  0
   19.9140   29.6070   15.6090   C 0  0  0  0  0  0  0  0  0  0  0  0
   19.8280   28.4880   16.5240   O 0  0  0  0  0  0  0  0  0  0  0  0
   19.5590   29.2160   14.1780   C 0  0  0  0  0  0  0  0  0  0  0  0
   20.6670   28.4200   13.6740   N 0  0  0  0  0  0  0  0  0  0  0  0
   21.5230   28.8100   12.7340   C 0  0  0  0  0  0  0  0  0  0  0  0
   21.5350   29.8810   12.1480   O 0  0  0  0  0  0  0  0  0  0  0  0
   22.4970   27.7880   12.4510   O 0  0  0  0  0  0  0  0  0  0  0  0
   23.3550   27.8430   11.3150   C 0  0  0  0  0  0  0  0  0  0  0  0
   24.6780   27.2520   11.7610   C 0  0  0  0  0  0  0  0  0  0  0  0
   24.5000   25.8350   11.6610   O 0  0  0  0  0  0  0  0  0  0  0  0
   23.5510   25.5830   10.6170   C 0  0  0  0  0  0  0  0  0  0  0  0
   22.5050   24.7100   11.0300   O 0  0  0  0  0  0  0  0  0  0  0  0
   21.2440   25.3960   11.0380   C 0  0  0  0  0  0  0  0  0  0  0  0
   21.4040   26.6080   10.1320   C 0  0  0  0  0  0  0  0  0  0  0  0
   22.9020   26.8980   10.2180   C 0  0  0  0  0  0  0  0  0  0  0  0
   18.2480   28.4300   14.0120   C 0  0  0  0  0  0  0  0  0  0  0  0
   18.1180   26.6900   12.1940   C 0  0  0  0  0  0  0  0  0  0  0  0
   17.9330   26.2820   10.8800   C 0  0  0  0  0  0  0  0  0  0  0  0
   17.6480   27.2250    9.9120   C 0  0  0  0  0  0  0  0  0  0  0  0
   17.5420   28.5610   10.2700   C 0  0  0  0  0  0  0  0  0  0  0  0
   17.7330   28.9740   11.5880   C 0  0  0  0  0  0  0  0  0  0  0  0
   18.0270   28.0310   12.5640   C 0  0  0  0  0  0  0  0  0  0  0  0
  1  2  1  0  0  0  0
  2  3  2  0  0  0  0
  2  7  1  0  0  0  0
  3  4  1  0  0  0  0
  4  5  2  0  0  0  0
  5  6  1  0  0  0  0
  5  8  1  0  0  0  0
  6  7  2  0  0  0  0
  8  9  2  0  0  0  0
  8 10  2  0  0  0  0
  8 11  1  0  0  0  0
 11 12  1  0  0  0  0
 11 16  1  0  0  0  0
 12 13  1  0  0  0  0
 13 14  1  0  0  0  0
 13 15  1  0  0  0  0
 16 17  1  0  0  0  0
 17 18  1  0  0  0  0
 17 19  1  0  0  0  0
 19 20  1  0  0  0  0
 19 32  1  0  0  0  0
 20 21  1  0  0  0  0
 21 22  2  0  0  0  0
 21 23  1  0  0  0  0
 23 24  1  0  0  0  0
 24 25  1  0  0  0  0
 24 31  1  0  0  0  0
 25 26  1  0  0  0  0
 26 27  1  0  0  0  0
 27 28  1  0  0  0  0
 27 31  1  0  0  0  0
 28 29  1  0  0  0  0
 29 30  1  0  0  0  0
 30 31  1  0  0  0  0
 32 38  1  0  0  0  0
 33 34  2  0  0  0  0
 33 38  1  0  0  0  0
 34 35  1  0  0  0  0
 35 36  2  0  0  0  0
 36 37  1  0  0  0  0
 37 38  2  0  0  0  0
M  END
>  <InstanceId>
4Q1X_017_A_101

>  <ChemCompId>
017

>  <PdbId>
4Q1X

>  <ChainId>
A

>  <ResidueNumber>
101

>  <InsertionCode>


>  <Model>
1

>  <AltIds>


>  <MissingHeavyAtoms>
0

>  <ObservedFormula>
C27 N3 O7 S

>  <Name>
(3R,3AS,6AR)-HEXAHYDROFURO[2,3-B]FURAN-3-YL(1S,2R)-3-[[(4-AMINOPHENYL)SULFONYL](ISOBUTYL)AMINO]-1-BENZYL-2-HYDROXYPROPYLCARBAMATE

>  <SystematicName>
[(3R,3aS,6aR)-2,3,3a,4,5,6a-hexahydrofuro[2,3-b]furan-3-yl] N-[(2S,3R)-4-[(4-aminophenyl)sulfonyl-(2-methylpropyl)amino]-3-hydroxy-1-phenyl-butan-2-yl]carbamate

>  <Synonyms>
Darunavir; TMC114; UIC-94017

>  <Type>
NON-POLYMER

>  <Formula>
C27 H37 N3 O7 S

>  <MolecularWeight>
547.664

>  <ModifiedDate>
2020-05-22

>  <Parent>


>  <OneLetterCode>


>  <SubcomponentList>


>  <AmbiguousFlag>
N

>  <InChI>
InChI=1S/C27H37N3O7S/c1-18(2)15-30(38(33,34)21-10-8-20(28)9-11-21)16-24(31)23(14-19-6-4-3-5-7-19)29-27(32)37-25-17-36-26-22(25)12-13-35-26/h3-11,18,22-26,31H,12-17,28H2,1-2H3,(H,29,32)/t22-,23-,24+,25-,26+/m0/s1

>  <InChIKey>
CJBJHOAVZSMMDJ-HEXNFIEUSA-N

>  <SMILES>
CC(C)C[N@@](C[C@H]([C@H](Cc1ccccc1)NC(=O)O[C@H]2CO[C@@H]3[C@H]2CCO3)O)S(=O)(=O)c4ccc(cc4)N

$$$$
