2CCB_RBF_A_1067
  RCSB PDB08012016463D
Coordinates from PDB:2CCB:A:1067 Model:1 without hydrogens
 27 29  0  0  0  0            999 V2000
    0.2290   22.7140   -2.8930   N 0  0  0  0  0  0  0  0  0  0  0  0
   -0.4650   22.3310   -3.9920   C 0  0  0  0  0  0  0  0  0  0  0  0
   -0.9230   23.2470   -4.7080   O 0  0  0  0  0  0  0  0  0  0  0  0
   -0.6390   21.0430   -4.3260   N 0  0  0  0  0  0  0  0  0  0  0  0
   -0.1950   20.0310   -3.5950   C 0  0  0  0  0  0  0  0  0  0  0  0
   -0.3580   18.8400   -3.9200   O 0  0  0  0  0  0  0  0  0  0  0  0
    0.5670   20.3570   -2.3690   C 0  0  0  0  0  0  0  0  0  0  0  0
    1.0610   19.3890   -1.5810   N 0  0  0  0  0  0  0  0  0  0  0  0
    1.7560   19.7200   -0.4530   C 0  0  0  0  0  0  0  0  0  0  0  0
    2.2520   18.7100    0.3550   C 0  0  0  0  0  0  0  0  0  0  0  0
    2.9770   19.0210    1.5140   C 0  0  0  0  0  0  0  0  0  0  0  0
    3.5330   17.8890    2.3720   C 0  0  0  0  0  0  0  0  0  0  0  0
    3.1920   20.4430    1.8740   C 0  0  0  0  0  0  0  0  0  0  0  0
    3.9660   20.7820    3.1350   C 0  0  0  0  0  0  0  0  0  0  0  0
    2.6870   21.4750    1.0810   C 0  0  0  0  0  0  0  0  0  0  0  0
    1.9690   21.1450   -0.0880   C 0  0  0  0  0  0  0  0  0  0  0  0
    1.4570   22.1720   -0.9220   N 0  0  0  0  0  0  0  0  0  0  0  0
    0.7390   21.7850   -2.0650   C 0  0  0  0  0  0  0  0  0  0  0  0
    1.5960   23.6000   -0.5930   C 0  0  0  0  0  0  0  0  0  0  0  0
    2.5700   24.3800   -1.4470   C 0  0  0  0  0  0  0  0  0  0  0  0
    3.8580   24.1470   -0.8860   O 0  0  0  0  0  0  0  0  0  0  0  0
    2.1770   25.8630   -1.5060   C 0  0  0  0  0  0  0  0  0  0  0  0
    2.0800   26.3820   -0.1790   O 0  0  0  0  0  0  0  0  0  0  0  0
    0.8510   25.9910   -2.3170   C 0  0  0  0  0  0  0  0  0  0  0  0
    1.1430   25.7710   -3.6980   O 0  0  0  0  0  0  0  0  0  0  0  0
    0.0800   27.3010   -2.1830   C 0  0  0  0  0  0  0  0  0  0  0  0
   -1.0660   27.3250   -3.0630   O 0  0  0  0  0  0  0  0  0  0  0  0
  1  2  1  0  0  0  0
  1 18  2  0  0  0  0
  2  3  2  0  0  0  0
  2  4  1  0  0  0  0
  4  5  1  0  0  0  0
  5  6  2  0  0  0  0
  5  7  1  0  0  0  0
  7  8  2  0  0  0  0
  7 18  1  0  0  0  0
  8  9  1  0  0  0  0
  9 10  2  0  0  0  0
  9 16  1  0  0  0  0
 10 11  1  0  0  0  0
 11 12  1  0  0  0  0
 11 13  2  0  0  0  0
 13 14  1  0  0  0  0
 13 15  1  0  0  0  0
 15 16  2  0  0  0  0
 16 17  1  0  0  0  0
 17 18  1  0  0  0  0
 17 19  1  0  0  0  0
 19 20  1  0  0  0  0
 20 21  1  0  0  0  0
 20 22  1  0  0  0  0
 22 23  1  0  0  0  0
 22 24  1  0  0  0  0
 24 25  1  0  0  0  0
 24 26  1  0  0  0  0
 26 27  1  0  0  0  0
M  END
>  <InstanceId>
2CCB_RBF_A_1067

>  <ChemCompId>
RBF

>  <PdbId>
2CCB

>  <ChainId>
A

>  <ResidueNumber>
1067

>  <InsertionCode>


>  <Model>
1

>  <AltIds>


>  <MissingHeavyAtoms>
0

>  <ObservedFormula>
C17 N4 O6

>  <Name>
RIBOFLAVIN

>  <SystematicName>
7,8-dimethyl-10-[(2S,3S,4R)-2,3,4,5-tetrakis(oxidanyl)pentyl]benzo[g]pteridine-2,4-dione

>  <Synonyms>
RIBOFLAVINE; VITAMIN B2

>  <Type>
NON-POLYMER

>  <Formula>
C17 H20 N4 O6

>  <MolecularWeight>
376.364

>  <ModifiedDate>
2020-06-17

>  <Parent>


>  <OneLetterCode>


>  <SubcomponentList>


>  <AmbiguousFlag>
N

>  <InChI>
InChI=1S/C17H20N4O6/c1-7-3-9-10(4-8(7)2)21(5-11(23)14(25)12(24)6-22)15-13(18-9)16(26)20-17(27)19-15/h3-4,11-12,14,22-25H,5-6H2,1-2H3,(H,20,26,27)/t11-,12+,14-/m0/s1

>  <InChIKey>
AUNGANRZJHBGPY-SCRDCRAPSA-N

>  <SMILES>
Cc1cc2c(cc1C)N(C3=NC(=O)NC(=O)C3=N2)C[C@@H]([C@@H]([C@@H](CO)O)O)O

$$$$
