4Q0K_GA3_A_201
  RCSB PDB08012022563D
Coordinates from PDB:4Q0K:A:201 Model:1 without hydrogens
 25 29  0  0  0  0            999 V2000
    0.8840   20.1060   34.2810   O 0  0  0  0  0  0  0  0  0  0  0  0
    1.4510   20.8740   33.4710   C 0  0  0  0  0  0  0  0  0  0  0  0
    1.5120   20.6320   32.2440   O 0  0  0  0  0  0  0  0  0  0  0  0
    2.0690   22.1480   34.0220   C 0  0  0  0  0  0  0  0  0  0  0  0
    3.3410   22.6290   33.2990   C 0  0  0  0  0  0  0  0  0  0  0  0
    1.0960   23.3550   33.9870   C 0  0  0  0  0  0  0  0  0  0  0  0
   -0.0350   23.3290   32.9440   C 0  0  0  0  0  0  0  0  0  0  0  0
   -0.8630   24.4790   33.4340   C 0  0  0  0  0  0  0  0  0  0  0  0
   -1.7660   25.1440   32.7370   C 0  0  0  0  0  0  0  0  0  0  0  0
   -0.5660   24.7590   34.8980   C 0  0  0  0  0  0  0  0  0  0  0  0
    0.2620   23.5120   35.2620   C 0  0  0  0  0  0  0  0  0  0  0  0
   -1.7820   24.9190   35.6560   O 0  0  0  0  0  0  0  0  0  0  0  0
    0.3060   26.0190   35.0630   C 0  0  0  0  0  0  0  0  0  0  0  0
    1.7840   25.7070   34.8180   C 0  0  0  0  0  0  0  0  0  0  0  0
    1.9910   24.6040   33.7730   C 0  0  0  0  0  0  0  0  0  0  0  0
    3.4270   24.1040   33.7260   C 0  0  0  0  0  0  0  0  0  0  0  0
    3.9990   23.9280   35.1000   O 0  0  0  0  0  0  0  0  0  0  0  0
    4.4740   24.8370   32.9360   C 0  0  0  0  0  0  0  0  0  0  0  0
    5.6600   24.2320   32.8460   C 0  0  0  0  0  0  0  0  0  0  0  0
    5.7950   22.7340   32.9670   C 0  0  0  0  0  0  0  0  0  0  0  0
    5.6930   22.2210   31.6490   O 0  0  0  0  0  0  0  0  0  0  0  0
    4.6880   22.0820   33.8350   C 0  0  0  0  0  0  0  0  0  0  0  0
    4.8010   20.5560   33.9160   C 0  0  0  0  0  0  0  0  0  0  0  0
    4.7360   22.7870   35.1730   C 0  0  0  0  0  0  0  0  0  0  0  0
    5.3320   22.5700   36.1840   O 0  0  0  0  0  0  0  0  0  0  0  0
  1  2  1  0  0  0  0
  2  3  2  0  0  0  0
  2  4  1  0  0  0  0
  4  5  1  0  0  0  0
  4  6  1  0  0  0  0
  5 16  1  0  0  0  0
  5 22  1  0  0  0  0
  6  7  1  0  0  0  0
  6 11  1  0  0  0  0
  6 15  1  0  0  0  0
  7  8  1  0  0  0  0
  8  9  2  0  0  0  0
  8 10  1  0  0  0  0
 10 11  1  0  0  0  0
 10 12  1  0  0  0  0
 10 13  1  0  0  0  0
 13 14  1  0  0  0  0
 14 15  1  0  0  0  0
 15 16  1  0  0  0  0
 16 17  1  0  0  0  0
 16 18  1  0  0  0  0
 17 24  1  0  0  0  0
 18 19  2  0  0  0  0
 19 20  1  0  0  0  0
 20 21  1  0  0  0  0
 20 22  1  0  0  0  0
 22 23  1  0  0  0  0
 22 24  1  0  0  0  0
 24 25  2  0  0  0  0
M  END
>  <InstanceId>
4Q0K_GA3_A_201

>  <ChemCompId>
GA3

>  <PdbId>
4Q0K

>  <ChainId>
A

>  <ResidueNumber>
201

>  <InsertionCode>


>  <Model>
1

>  <AltIds>


>  <MissingHeavyAtoms>
0

>  <ObservedFormula>
C19 O6

>  <Name>
GIBBERELLIN A3

>  <SystematicName>


>  <Synonyms>
(1S,2S,4aR,4bR,7S,9aS,10S,10aR)-2,7-dihydroxy-1-methyl-8-methylidene-13-oxo-1,2,4b,5,6,7,8,9,10,10a-decahydro-4a,1-(epo xymethano)-7,9a-methanobenzo[a]azulene-10-carboxylic acid

>  <Type>
NON-POLYMER

>  <Formula>
C19 H22 O6

>  <MolecularWeight>
346.374

>  <ModifiedDate>
2020-06-17

>  <Parent>


>  <OneLetterCode>


>  <SubcomponentList>


>  <AmbiguousFlag>
N

>  <InChI>
InChI=1S/C19H22O6/c1-9-7-17-8-18(9,24)5-3-10(17)19-6-4-11(20)16(2,15(23)25-19)13(19)12(17)14(21)22/h4,6,10-13,20,24H,1,3,5,7-8H2,2H3,(H,21,22)/t10-,11+,12-,13-,16-,17+,18+,19-/m1/s1

>  <InChIKey>
IXORZMNAPKEEDV-OBDJNFEBSA-N

>  <SMILES>
C[C@@]12[C@H](C=C[C@@]3([C@@H]1[C@@H]([C@]45[C@H]3CC[C@](C4)(C(=C)C5)O)C(=O)O)OC2=O)O

$$$$
