5J6A_P46_A_501
  RCSB PDB08022001513D
Coordinates from PDB:5J6A:A:501 Model:1 without hydrogens
 35 38  0  0  0  0            999 V2000
  -58.4970   11.1990    9.1860   C 0  0  0  0  0  0  0  0  0  0  0  0
  -59.0660   10.7830   10.3960   C 0  0  0  0  0  0  0  0  0  0  0  0
  -61.2210   10.3880    9.2360   C 0  0  0  0  0  0  0  0  0  0  0  0
  -60.5800   10.8370    8.0730   C 0  0  0  0  0  0  0  0  0  0  0  0
  -63.3050   10.1050    7.8710   O 0  0  0  0  0  0  0  0  0  0  0  0
  -65.1180   10.8430   10.4930   C 0  0  0  0  0  0  0  0  0  0  0  0
  -65.7360   12.2230   10.7270   C 0  0  0  0  0  0  0  0  0  0  0  0
  -64.8130   13.1970   10.3520   C 0  0  0  0  0  0  0  0  0  0  0  0
  -63.5400   12.5440    9.8590   C 0  0  0  0  0  0  0  0  0  0  0  0
  -65.1460   14.5520   10.4720   C 0  0  0  0  0  0  0  0  0  0  0  0
  -60.4190   10.4090   10.3900   C 0  0  0  0  0  0  0  0  0  0  0  0
  -59.2550   11.2330    8.0230   C 0  0  0  0  0  0  0  0  0  0  0  0
  -62.8390    9.9520    9.2030   S 0  0  0  0  0  0  0  0  0  0  0  0
  -62.9890    8.7080    9.8740   O 0  0  0  0  0  0  0  0  0  0  0  0
  -63.7120   11.0510   10.0660   N 0  0  0  0  0  0  0  0  0  0  0  0
  -66.4130   14.9260   10.9720   C 0  0  0  0  0  0  0  0  0  0  0  0
  -67.3510   13.9670   11.3550   C 0  0  0  0  0  0  0  0  0  0  0  0
  -66.9770   12.5790   11.2130   C 0  0  0  0  0  0  0  0  0  0  0  0
  -68.6400   14.2730   11.8540   N 0  0  0  0  0  0  0  0  0  0  0  0
  -69.7080   13.3230   12.1220   C 0  0  0  0  0  0  0  0  0  0  0  0
  -71.1500   13.9300   12.1910   C 0  0  0  0  0  0  0  0  0  0  0  0
  -72.2350   12.9420   12.5970   C 0  0  0  0  0  0  0  0  0  0  0  0
  -71.9390   12.2750   13.8790   N 0  0  0  0  0  0  0  0  0  0  0  0
  -70.6500   11.5690   13.8060   C 0  0  0  0  0  0  0  0  0  0  0  0
  -69.5210   12.5310   13.4490   C 0  0  0  0  0  0  0  0  0  0  0  0
  -72.7870   12.3400   14.9920   C 0  0  0  0  0  0  0  0  0  0  0  0
  -74.1690   13.1060   15.0340   C 0  0  0  0  0  0  0  0  0  0  0  0
  -73.9820   14.6540   15.2480   C 0  0  0  0  0  0  0  0  0  0  0  0
  -74.2300   15.4170   13.9640   C 0  0  0  0  0  0  0  0  0  0  0  0
  -73.3280   15.9690   13.3380   O 0  0  0  0  0  0  0  0  0  0  0  0
  -75.5280   15.4780   13.4650   N 0  0  0  0  0  0  0  0  0  0  0  0
  -74.9760   12.5340   16.1020   N 0  0  0  0  0  0  0  0  0  0  0  0
  -72.4280   11.7400   16.0140   O 0  0  0  0  0  0  0  0  0  0  0  0
  -61.0220    9.9920   11.5720   O 0  0  0  0  0  0  0  0  0  0  0  0
  -57.2010   11.5820    9.1470   O 0  0  0  0  0  0  0  0  0  0  0  0
  5 13  2  0  0  0  0
 12  4  2  0  0  0  0
 12  1  1  0  0  0  0
  4  3  1  0  0  0  0
 35  1  1  0  0  0  0
  1  2  2  0  0  0  0
 13  3  1  0  0  0  0
 13 14  2  0  0  0  0
 13 15  1  0  0  0  0
  3 11  2  0  0  0  0
  9 15  1  0  0  0  0
  9  8  2  0  0  0  0
 15  6  1  0  0  0  0
  8 10  1  0  0  0  0
  8  7  1  0  0  0  0
 11  2  1  0  0  0  0
 11 34  1  0  0  0  0
 10 16  2  0  0  0  0
  6  7  2  0  0  0  0
  7 18  1  0  0  0  0
 16 17  1  0  0  0  0
 18 17  2  0  0  0  0
 17 19  1  0  0  0  0
 19 20  1  0  0  0  0
 20 21  1  0  0  0  0
 20 25  1  0  0  0  0
 21 22  1  0  0  0  0
 22 23  1  0  0  0  0
 30 29  2  0  0  0  0
 25 24  1  0  0  0  0
 31 29  1  0  0  0  0
 24 23  1  0  0  0  0
 23 26  1  0  0  0  0
 29 28  1  0  0  0  0
 26 27  1  0  0  0  0
 26 33  2  0  0  0  0
 27 28  1  0  0  0  0
 27 32  1  0  0  0  0
M  END
>  <InstanceId>
5J6A_P46_A_501

>  <ChemCompId>
P46

>  <PdbId>
5J6A

>  <ChainId>
A

>  <ResidueNumber>
501

>  <InsertionCode>


>  <Model>
1

>  <AltIds>


>  <MissingHeavyAtoms>
0

>  <ObservedFormula>
C23 N5 O6 S

>  <Name>
(3S)-3-amino-4-[4-({2-[(2,4-dihydroxyphenyl)sulfonyl]-2H-isoindol-5-yl}amino)piperidin-1-yl]-4-oxobutanamide

>  <SystematicName>
(3~{S})-3-azanyl-4-[4-[[2-[2,4-bis(oxidanyl)phenyl]sulfonylisoindol-5-yl]amino]piperidin-1-yl]-4-oxidanylidene-butanamide

>  <Synonyms>


>  <Type>
NON-POLYMER

>  <Formula>
C23 H27 N5 O6 S

>  <MolecularWeight>
501.555

>  <ModifiedDate>
2017-01-20

>  <Parent>


>  <OneLetterCode>


>  <SubcomponentList>


>  <AmbiguousFlag>
N

>  <InChI>
InChI=1S/C23H27N5O6S/c24-19(11-22(25)31)23(32)27-7-5-16(6-8-27)26-17-2-1-14-12-28(13-15(14)9-17)35(33,34)21-4-3-18(29)10-20(21)30/h1-4,9-10,12-13,16,19,26,29-30H,5-8,11,24H2,(H2,25,31)/t19-/m0/s1

>  <InChIKey>
HAMJZOUVHDEUSM-IBGZPJMESA-N

>  <SMILES>
c1cc2cn(cc2cc1NC3CCN(CC3)C(=O)[C@H](CC(=O)N)N)S(=O)(=O)c4ccc(cc4O)O

$$$$
