4FL2_ANP_A_702
  RCSB PDB08012021433D
Coordinates from PDB:4FL2:A:702 Model:1 without hydrogens
 31 33  0  0  0  0            999 V2000
  -33.4840   -9.4850   -6.1450   P 0  0  0  0  0  0  0  0  0  0  0  0
  -34.4030   -8.7140   -5.1250   O 0  0  0  0  0  0  0  0  0  0  0  0
  -32.5110   -8.5120   -6.8710   O 0  0  0  0  0  0  0  0  0  0  0  0
  -34.4000  -10.2010   -7.1930   O 0  0  0  0  0  0  0  0  0  0  0  0
  -30.9870  -10.5120   -5.1120   P 0  0  0  0  0  0  0  0  0  0  0  0
  -30.6780   -9.1670   -4.3930   O 0  0  0  0  0  0  0  0  0  0  0  0
  -30.4980  -11.6940   -4.2790   O 0  0  0  0  0  0  0  0  0  0  0  0
  -32.6410  -10.7180   -5.3230   N 0  0  0  0  0  0  0  0  0  0  0  0
  -29.0170   -9.5660   -7.1500   P 0  0  0  0  0  0  0  0  0  0  0  0
  -29.1090   -9.4860   -8.6960   O 0  0  0  0  0  0  0  0  0  0  0  0
  -29.0000   -8.1690   -6.5000   O 0  0  0  0  0  0  0  0  0  0  0  0
  -30.2120  -10.4620   -6.5250   O 0  0  0  0  0  0  0  0  0  0  0  0
  -27.6120  -10.2570   -6.8360   O 0  0  0  0  0  0  0  0  0  0  0  0
  -27.4340  -11.6640   -6.8960   C 0  0  0  0  0  0  0  0  0  0  0  0
  -26.0510  -11.9900   -6.3870   C 0  0  0  0  0  0  0  0  0  0  0  0
  -25.0710  -11.2060   -7.0940   O 0  0  0  0  0  0  0  0  0  0  0  0
  -25.8990  -11.6020   -4.9050   C 0  0  0  0  0  0  0  0  0  0  0  0
  -26.4400  -12.6040   -4.0480   O 0  0  0  0  0  0  0  0  0  0  0  0
  -24.3750  -11.5370   -4.7970   C 0  0  0  0  0  0  0  0  0  0  0  0
  -23.7870  -12.8500   -4.6990   O 0  0  0  0  0  0  0  0  0  0  0  0
  -24.0030  -10.9050   -6.1620   C 0  0  0  0  0  0  0  0  0  0  0  0
  -23.7700   -9.4520   -6.0660   N 0  0  0  0  0  0  0  0  0  0  0  0
  -24.6640   -8.4250   -6.2940   C 0  0  0  0  0  0  0  0  0  0  0  0
  -24.0660   -7.2810   -6.1400   N 0  0  0  0  0  0  0  0  0  0  0  0
  -22.7690   -7.4960   -5.7930   C 0  0  0  0  0  0  0  0  0  0  0  0
  -21.6560   -6.6890   -5.4540   C 0  0  0  0  0  0  0  0  0  0  0  0
  -21.6910   -5.2950   -5.4870   N 0  0  0  0  0  0  0  0  0  0  0  0
  -20.5250   -7.3020   -5.0970   N 0  0  0  0  0  0  0  0  0  0  0  0
  -20.3840   -8.6060   -5.0770   C 0  0  0  0  0  0  0  0  0  0  0  0
  -21.3890   -9.3890   -5.3800   N 0  0  0  0  0  0  0  0  0  0  0  0
  -22.5790   -8.8910   -5.7280   C 0  0  0  0  0  0  0  0  0  0  0  0
  1  2  2  0  0  0  0
  1  3  1  0  0  0  0
  1  4  1  0  0  0  0
  1  8  1  0  0  0  0
  5  6  2  0  0  0  0
  5  7  1  0  0  0  0
  5  8  1  0  0  0  0
  5 12  1  0  0  0  0
  9 10  2  0  0  0  0
  9 11  1  0  0  0  0
  9 12  1  0  0  0  0
  9 13  1  0  0  0  0
 13 14  1  0  0  0  0
 14 15  1  0  0  0  0
 15 16  1  0  0  0  0
 15 17  1  0  0  0  0
 16 21  1  0  0  0  0
 17 18  1  0  0  0  0
 17 19  1  0  0  0  0
 19 20  1  0  0  0  0
 19 21  1  0  0  0  0
 21 22  1  0  0  0  0
 22 23  1  0  0  0  0
 22 31  1  0  0  0  0
 23 24  2  0  0  0  0
 24 25  1  0  0  0  0
 25 26  1  0  0  0  0
 25 31  2  0  0  0  0
 26 27  1  0  0  0  0
 26 28  2  0  0  0  0
 28 29  1  0  0  0  0
 29 30  2  0  0  0  0
 30 31  1  0  0  0  0
M  END
>  <InstanceId>
4FL2_ANP_A_702

>  <ChemCompId>
ANP

>  <PdbId>
4FL2

>  <ChainId>
A

>  <ResidueNumber>
702

>  <InsertionCode>


>  <Model>
1

>  <AltIds>


>  <MissingHeavyAtoms>
0

>  <ObservedFormula>
C10 N6 O12 P3

>  <Name>
PHOSPHOAMINOPHOSPHONIC ACID-ADENYLATE ESTER

>  <SystematicName>
[[[[(2R,3S,4R,5R)-5-(6-aminopurin-9-yl)-3,4-dihydroxy-oxolan-2-yl]methoxy-hydroxy-phosphoryl]oxy-hydroxy-phosphoryl]amino]phosphonic acid

>  <Synonyms>


>  <Type>
NON-POLYMER

>  <Formula>
C10 H17 N6 O12 P3

>  <MolecularWeight>
506.196

>  <ModifiedDate>
2011-06-04

>  <Parent>


>  <OneLetterCode>


>  <SubcomponentList>


>  <AmbiguousFlag>
N

>  <InChI>
InChI=1S/C10H17N6O12P3/c11-8-5-9(13-2-12-8)16(3-14-5)10-7(18)6(17)4(27-10)1-26-31(24,25)28-30(22,23)15-29(19,20)21/h2-4,6-7,10,17-18H,1H2,(H,24,25)(H2,11,12,13)(H4,15,19,20,21,22,23)/t4-,6-,7-,10-/m1/s1

>  <InChIKey>
PVKSNHVPLWYQGJ-KQYNXXCUSA-N

>  <SMILES>
c1nc(c2c(n1)n(cn2)[C@H]3[C@@H]([C@@H]([C@H](O3)CO[P@](=O)(O)O[P@@](=O)(NP(=O)(O)O)O)O)O)N

$$$$
