1O5E_132_H_256
  RCSB PDB08012015363D
Coordinates from PDB:1O5E:H:256 Model:1 without hydrogens
 26 29  0  0  0  0            999 V2000
   16.2360   -6.7590   25.1990   C 0  0  0  0  0  0  0  0  0  0  0  0
   14.9550   -6.0960   24.9820   C 0  0  0  0  0  0  0  0  0  0  0  0
   14.5530   -5.0590   25.8430   C 0  0  0  0  0  0  0  0  0  0  0  0
   15.4290   -4.7470   26.8720   C 0  0  0  0  0  0  0  0  0  0  0  0
   16.6010   -5.3500   27.0870   C 0  0  0  0  0  0  0  0  0  0  0  0
   17.0170   -6.3370   26.2690   C 0  0  0  0  0  0  0  0  0  0  0  0
   16.7520   -7.7960   24.4310   C 0  0  0  0  0  0  0  0  0  0  0  0
   17.9970   -8.1410   24.4950   N 0  0  0  0  0  0  0  0  0  0  0  0
   15.9630   -8.4220   23.6370   N 0  3  0  0  0  0  0  0  0  0  0  0
   15.3130   -3.8600   27.8410   N 0  0  0  0  0  0  0  0  0  0  0  0
   17.1700   -4.8250   28.1650   C 0  0  0  0  0  0  0  0  0  0  0  0
   16.3550   -3.8520   28.6810   C 0  0  0  0  0  0  0  0  0  0  0  0
   16.4660   -3.0320   29.8300   C 0  0  0  0  0  0  0  0  0  0  0  0
   17.5220   -3.2740   30.7300   C 0  0  0  0  0  0  0  0  0  0  0  0
   17.6860   -2.5520   31.8820   C 0  0  0  0  0  0  0  0  0  0  0  0
   16.7850   -1.5420   32.1780   C 0  0  0  0  0  0  0  0  0  0  0  0
   15.7020   -1.2250   31.3350   C 0  0  0  0  0  0  0  0  0  0  0  0
   15.5690   -2.0000   30.1640   C 0  0  0  0  0  0  0  0  0  0  0  0
   14.5140   -1.7840   29.3030   O 0  0  0  0  0  0  0  0  0  0  0  0
   14.8470   -0.1540   31.6900   C 0  0  0  0  0  0  0  0  0  0  0  0
   14.2990   -0.0390   32.9760   C 0  0  0  0  0  0  0  0  0  0  0  0
   13.4760    1.0430   33.3570   C 0  0  0  0  0  0  0  0  0  0  0  0
   13.1950    2.0280   32.4510   C 0  0  0  0  0  0  0  0  0  0  0  0
   13.7230    1.9370   31.1700   C 0  0  0  0  0  0  0  0  0  0  0  0
   14.5310    0.8720   30.7970   C 0  0  0  0  0  0  0  0  0  0  0  0
   13.7470   -6.5600   23.7390  Cl 0  0  0  0  0  0  0  0  0  0  0  0
  1  2  1  0  0  0  0
  1  6  2  0  0  0  0
  1  7  1  0  0  0  0
  2  3  2  0  0  0  0
  2 26  1  0  0  0  0
  3  4  1  0  0  0  0
  4  5  2  0  0  0  0
  4 10  1  0  0  0  0
  5  6  1  0  0  0  0
  5 11  1  0  0  0  0
  7  8  1  0  0  0  0
  7  9  2  0  0  0  0
 10 12  1  0  0  0  0
 11 12  2  0  0  0  0
 12 13  1  0  0  0  0
 13 14  2  0  0  0  0
 13 18  1  0  0  0  0
 14 15  1  0  0  0  0
 15 16  2  0  0  0  0
 16 17  1  0  0  0  0
 17 18  2  0  0  0  0
 17 20  1  0  0  0  0
 18 19  1  0  0  0  0
 20 21  2  0  0  0  0
 20 25  1  0  0  0  0
 21 22  1  0  0  0  0
 22 23  2  0  0  0  0
 23 24  1  0  0  0  0
 24 25  2  0  0  0  0
M  CHG  1   9   1
M  END
>  <InstanceId>
1O5E_132_H_256

>  <ChemCompId>
132

>  <PdbId>
1O5E

>  <ChainId>
H

>  <ResidueNumber>
256

>  <InsertionCode>


>  <Model>
1

>  <AltIds>


>  <MissingHeavyAtoms>
0

>  <ObservedFormula>
C21 N3 O Cl

>  <Name>
6-CHLORO-2-(2-HYDROXY-BIPHENYL-3-YL)-1H-INDOLE-5-CARBOXAMIDINE

>  <SystematicName>
[amino-[6-chloro-2-(2-hydroxy-3-phenyl-phenyl)-1H-indol-5-yl]methylidene]azanium

>  <Synonyms>


>  <Type>
NON-POLYMER

>  <Formula>
C21 H17 Cl N3 O

>  <MolecularWeight>
362.832

>  <ModifiedDate>
2011-06-04

>  <Parent>


>  <OneLetterCode>


>  <SubcomponentList>


>  <AmbiguousFlag>
N

>  <InChI>
InChI=1S/C21H16ClN3O/c22-17-11-18-13(9-16(17)21(23)24)10-19(25-18)15-8-4-7-14(20(15)26)12-5-2-1-3-6-12/h1-11,25-26H,(H3,23,24)/p+1

>  <InChIKey>
FEKRWNWZMOSVBX-UHFFFAOYSA-O

>  <SMILES>
c1ccc(cc1)c2cccc(c2O)c3cc4cc(c(cc4[nH]3)Cl)C(=[NH2+])N

$$$$
