5E2K_BX4_A_302
  RCSB PDB08022001103D
Coordinates from PDB:5E2K:A:302 Model:1 without hydrogens
 17 18  0  0  0  0            999 V2000
   -5.9330    0.9240   16.6280   S 0  0  0  0  0  0  0  0  0  0  0  0
   -5.4210   -0.4260   15.9150   N 0  0  0  0  0  0  0  0  0  0  0  0
   -5.5600    0.8470   18.0130   O 0  0  0  0  0  0  0  0  0  0  0  0
   -7.3190    1.0890   16.2900   O 0  0  0  0  0  0  0  0  0  0  0  0
   -5.0450    2.2760   15.9100   C 0  0  0  0  0  0  0  0  0  0  0  0
   -3.6730    2.1770   15.7080   C 0  0  0  0  0  0  0  0  0  0  0  0
   -2.9750    3.2380   15.1440   C 0  0  0  0  0  0  0  0  0  0  0  0
   -3.6480    4.3990   14.7830   C 0  0  0  0  0  0  0  0  0  0  0  0
   -5.0200    4.4980   14.9850   C 0  0  0  0  0  0  0  0  0  0  0  0
   -5.7180    3.4370   15.5480   C 0  0  0  0  0  0  0  0  0  0  0  0
   -2.9020    5.5350   14.1790   C 0  0  0  0  0  0  0  0  0  0  0  0
   -3.1380    6.8320   14.6170   C 0  0  0  0  0  0  0  0  0  0  0  0
   -2.4400    7.8940   14.0540   C 0  0  0  0  0  0  0  0  0  0  0  0
   -1.5050    7.6580   13.0520   C 0  0  0  0  0  0  0  0  0  0  0  0
   -1.2690    6.3600   12.6140   C 0  0  0  0  0  0  0  0  0  0  0  0
   -1.9670    5.2980   13.1780   C 0  0  0  0  0  0  0  0  0  0  0  0
   -0.3420    6.1250   11.6190   N 0  0  0  0  0  0  0  0  0  0  0  0
 17 15  1  0  0  0  0
 15 14  2  0  0  0  0
 15 16  1  0  0  0  0
 14 13  1  0  0  0  0
 16 11  2  0  0  0  0
 13 12  2  0  0  0  0
 11 12  1  0  0  0  0
 11  8  1  0  0  0  0
  8  9  2  0  0  0  0
  8  7  1  0  0  0  0
  9 10  1  0  0  0  0
  7  6  2  0  0  0  0
 10  5  2  0  0  0  0
  6  5  1  0  0  0  0
  5  1  1  0  0  0  0
  2  1  1  0  0  0  0
  4  1  2  0  0  0  0
  1  3  2  0  0  0  0
M  END
>  <InstanceId>
5E2K_BX4_A_302

>  <ChemCompId>
BX4

>  <PdbId>
5E2K

>  <ChainId>
A

>  <ResidueNumber>
302

>  <InsertionCode>


>  <Model>
1

>  <AltIds>


>  <MissingHeavyAtoms>
0

>  <ObservedFormula>
C12 N2 O2 S

>  <Name>
3'-aminobiphenyl-4-sulfonamide

>  <SystematicName>
4-(3-aminophenyl)benzenesulfonamide

>  <Synonyms>


>  <Type>
NON-POLYMER

>  <Formula>
C12 H12 N2 O2 S

>  <MolecularWeight>
248.301

>  <ModifiedDate>
2016-01-15

>  <Parent>


>  <OneLetterCode>


>  <SubcomponentList>


>  <AmbiguousFlag>
N

>  <InChI>
InChI=1S/C12H12N2O2S/c13-11-3-1-2-10(8-11)9-4-6-12(7-5-9)17(14,15)16/h1-8H,13H2,(H2,14,15,16)

>  <InChIKey>
BJLAHYUZLVYPAA-UHFFFAOYSA-N

>  <SMILES>
c1cc(cc(c1)N)c2ccc(cc2)S(=O)(=O)N

$$$$
