5N25_8HK_A_302
  RCSB PDB08022002283D
Coordinates from PDB:5N25:A:302 Model:1 without hydrogens
 16 17  0  0  0  0            999 V2000
   -3.0920    3.1360   14.8860   C 0  0  0  0  0  0  0  0  0  0  0  0
   -5.1180    2.1910   15.7390   C 0  0  0  0  0  0  0  0  0  0  0  0
   -5.1440    4.3450   14.6890   C 0  0  0  0  0  0  0  0  0  0  0  0
   -5.4340    0.9990   18.0110   O 0  0  0  0  0  0  0  0  0  0  0  0
   -3.0010    5.4400   13.9270   C 0  0  0  0  0  0  0  0  0  0  0  0
   -1.9670    5.2630   13.0110   C 0  0  0  0  0  0  0  0  0  0  0  0
   -2.4010    7.7660   13.9500   C 0  0  0  0  0  0  0  0  0  0  0  0
   -5.8240    3.3100   15.3170   C 0  0  0  0  0  0  0  0  0  0  0  0
   -3.7620    4.2870   14.4800   C 0  0  0  0  0  0  0  0  0  0  0  0
   -1.4030    7.4770   13.0430   C 0  0  0  0  0  0  0  0  0  0  0  0
   -5.4720   -0.4930   16.0670   N 0  0  0  0  0  0  0  0  0  0  0  0
   -3.2080    6.7350   14.3920   C 0  0  0  0  0  0  0  0  0  0  0  0
   -5.9270    0.9190   16.6650   S 0  0  0  0  0  0  0  0  0  0  0  0
   -3.7540    2.0940   15.5100   C 0  0  0  0  0  0  0  0  0  0  0  0
   -7.3390    1.0450   16.4400   O 0  0  0  0  0  0  0  0  0  0  0  0
   -1.1720    6.2490   12.5710   N 0  0  0  0  0  0  0  0  0  0  0  0
 16  6  2  0  0  0  0
 16 10  1  0  0  0  0
  6  5  1  0  0  0  0
 10  7  2  0  0  0  0
  5 12  2  0  0  0  0
  5  9  1  0  0  0  0
  7 12  1  0  0  0  0
  9  3  2  0  0  0  0
  9  1  1  0  0  0  0
  3  8  1  0  0  0  0
  1 14  2  0  0  0  0
  8  2  2  0  0  0  0
 14  2  1  0  0  0  0
  2 13  1  0  0  0  0
 11 13  1  0  0  0  0
 15 13  2  0  0  0  0
 13  4  2  0  0  0  0
M  END
>  <InstanceId>
5N25_8HK_A_302

>  <ChemCompId>
8HK

>  <PdbId>
5N25

>  <ChainId>
A

>  <ResidueNumber>
302

>  <InsertionCode>


>  <Model>
1

>  <AltIds>


>  <MissingHeavyAtoms>
0

>  <ObservedFormula>
C11 N2 O2 S

>  <Name>
4-pyridin-3-ylbenzenesulfonamide

>  <SystematicName>
4-pyridin-3-ylbenzenesulfonamide

>  <Synonyms>


>  <Type>
NON-POLYMER

>  <Formula>
C11 H10 N2 O2 S

>  <MolecularWeight>
234.274

>  <ModifiedDate>
2017-12-22

>  <Parent>


>  <OneLetterCode>


>  <SubcomponentList>


>  <AmbiguousFlag>
N

>  <InChI>
InChI=1S/C11H10N2O2S/c12-16(14,15)11-5-3-9(4-6-11)10-2-1-7-13-8-10/h1-8H,(H2,12,14,15)

>  <InChIKey>
FGJNMMSBSNRDFJ-UHFFFAOYSA-N

>  <SMILES>
c1cc(cnc1)c2ccc(cc2)S(=O)(=O)N

$$$$
