4QDK_SAH_A_301
  RCSB PDB08012023003D
Coordinates from PDB:4QDK:A:301 Model:1 without hydrogens
 26 28  0  0  0  0            999 V2000
   21.6290    2.5200   15.5870   N 0  0  0  0  0  0  0  0  0  0  0  0
   22.6840    3.5180   15.7340   C 0  0  0  0  0  0  0  0  0  0  0  0
   22.5260    4.6500   14.7250   C 0  0  0  0  0  0  0  0  0  0  0  0
   21.1720    5.3510   14.7360   C 0  0  0  0  0  0  0  0  0  0  0  0
   21.1490    6.8040   13.6510   S 0  0  0  0  0  0  0  0  0  0  0  0
   22.6790    4.0860   17.1440   C 0  0  0  0  0  0  0  0  0  0  0  0
   23.6970    4.5820   17.6280   O 0  0  0  0  0  0  0  0  0  0  0  0
   21.6550    4.0580   17.8270   O 0  0  0  0  0  0  0  0  0  0  0  0
   20.1710    5.9130   12.4180   C 0  0  0  0  0  0  0  0  0  0  0  0
   21.0460    5.1930   11.3990   C 0  0  0  0  0  0  0  0  0  0  0  0
   20.2540    4.3140   10.6250   O 0  0  0  0  0  0  0  0  0  0  0  0
   21.7330    6.1370   10.4190   C 0  0  0  0  0  0  0  0  0  0  0  0
   23.1250    5.9310   10.5000   O 0  0  0  0  0  0  0  0  0  0  0  0
   21.2350    5.7080    9.0510   C 0  0  0  0  0  0  0  0  0  0  0  0
   22.2500    5.7500    8.0750   O 0  0  0  0  0  0  0  0  0  0  0  0
   20.7690    4.2860    9.3130   C 0  0  0  0  0  0  0  0  0  0  0  0
   19.7490    3.8100    8.3640   N 0  0  0  0  0  0  0  0  0  0  0  0
   18.6550    4.4920    7.9020   C 0  0  0  0  0  0  0  0  0  0  0  0
   17.9810    3.6840    7.0510   N 0  0  0  0  0  0  0  0  0  0  0  0
   18.6300    2.4990    6.9690   C 0  0  0  0  0  0  0  0  0  0  0  0
   18.3780    1.3350    6.2540   C 0  0  0  0  0  0  0  0  0  0  0  0
   17.3160    1.2500    5.4570   N 0  0  0  0  0  0  0  0  0  0  0  0
   19.2420    0.2670    6.3690   N 0  0  0  0  0  0  0  0  0  0  0  0
   20.3450    0.3540    7.1970   C 0  0  0  0  0  0  0  0  0  0  0  0
   20.5890    1.5140    7.9020   N 0  0  0  0  0  0  0  0  0  0  0  0
   19.7440    2.5680    7.7890   C 0  0  0  0  0  0  0  0  0  0  0  0
  1  2  1  0  0  0  0
  2  3  1  0  0  0  0
  2  6  1  0  0  0  0
  3  4  1  0  0  0  0
  4  5  1  0  0  0  0
  5  9  1  0  0  0  0
  6  7  2  0  0  0  0
  6  8  1  0  0  0  0
  9 10  1  0  0  0  0
 10 11  1  0  0  0  0
 10 12  1  0  0  0  0
 11 16  1  0  0  0  0
 12 13  1  0  0  0  0
 12 14  1  0  0  0  0
 14 15  1  0  0  0  0
 14 16  1  0  0  0  0
 16 17  1  0  0  0  0
 17 18  1  0  0  0  0
 17 26  1  0  0  0  0
 18 19  2  0  0  0  0
 19 20  1  0  0  0  0
 20 21  1  0  0  0  0
 20 26  2  0  0  0  0
 21 22  1  0  0  0  0
 21 23  2  0  0  0  0
 23 24  1  0  0  0  0
 24 25  2  0  0  0  0
 25 26  1  0  0  0  0
M  END
>  <InstanceId>
4QDK_SAH_A_301

>  <ChemCompId>
SAH

>  <PdbId>
4QDK

>  <ChainId>
A

>  <ResidueNumber>
301

>  <InsertionCode>


>  <Model>
1

>  <AltIds>


>  <MissingHeavyAtoms>
0

>  <ObservedFormula>
C14 N6 O5 S

>  <Name>
S-ADENOSYL-L-HOMOCYSTEINE

>  <SystematicName>
(2S)-2-amino-4-[[(2S,3S,4R,5R)-5-(6-aminopurin-9-yl)-3,4-dihydroxy-oxolan-2-yl]methylsulfanyl]butanoic acid

>  <Synonyms>


>  <Type>
L-PEPTIDE LINKING

>  <Formula>
C14 H20 N6 O5 S

>  <MolecularWeight>
384.411

>  <ModifiedDate>
2011-06-04

>  <Parent>
CYS

>  <OneLetterCode>
C

>  <SubcomponentList>


>  <AmbiguousFlag>
N

>  <InChI>
InChI=1S/C14H20N6O5S/c15-6(14(23)24)1-2-26-3-7-9(21)10(22)13(25-7)20-5-19-8-11(16)17-4-18-12(8)20/h4-7,9-10,13,21-22H,1-3,15H2,(H,23,24)(H2,16,17,18)/t6-,7+,9+,10+,13+/m0/s1

>  <InChIKey>
ZJUKTBDSGOFHSH-WFMPWKQPSA-N

>  <SMILES>
c1nc(c2c(n1)n(cn2)[C@H]3[C@@H]([C@@H]([C@H](O3)CSCC[C@@H](C(=O)O)N)O)O)N

$$$$
