5DQC_5E7_A_401
  RCSB PDB08022001083D
Coordinates from PDB:5DQC:A:401 Model:1 without hydrogens
 49 51  0  0  0  0            999 V2000
    6.1420  -20.5630   33.5730   C 0  0  0  0  0  0  0  0  0  0  0  0
    5.4970  -20.2490   32.2770   N 0  0  0  0  0  0  0  0  0  0  0  0
    6.2780  -20.7790   30.8570   S 0  0  0  0  0  0  0  0  0  0  0  0
    7.0320  -21.9160   31.2210   O 0  0  0  0  0  0  0  0  0  0  0  0
    7.3530  -19.5030   30.3170   C 0  0  0  0  0  0  0  0  0  0  0  0
    5.3380  -20.9810   29.8210   O 0  0  0  0  0  0  0  0  0  0  0  0
    4.2350  -19.5170   32.2380   C 0  0  0  0  0  0  0  0  0  0  0  0
    3.2940  -19.5830   33.3010   C 0  0  0  0  0  0  0  0  0  0  0  0
    2.0770  -18.8910   33.2610   C 0  0  0  0  0  0  0  0  0  0  0  0
    1.0580  -18.9070   34.3710   C 0  0  0  0  0  0  0  0  0  0  0  0
   -0.3060  -18.7980   34.1340   N 0  0  0  0  0  0  0  0  0  0  0  0
   -1.4530  -18.7430   35.0500   C 0  0  0  0  0  0  0  0  0  0  0  0
   -2.5130  -17.6820   34.6060   C 0  0  0  0  0  0  0  0  0  0  0  0
   -1.9070  -16.4590   33.8830   C 0  0  0  0  0  0  0  0  0  0  0  0
   -2.3550  -15.9480   32.6550   C 0  0  0  0  0  0  0  0  0  0  0  0
   -1.7540  -14.8420   32.0430   C 0  0  0  0  0  0  0  0  0  0  0  0
   -0.6760  -14.2120   32.6290   C 0  0  0  0  0  0  0  0  0  0  0  0
   -0.1910  -14.6890   33.8370   C 0  0  0  0  0  0  0  0  0  0  0  0
   -0.8090  -15.7880   34.4280   C 0  0  0  0  0  0  0  0  0  0  0  0
   -2.0370  -20.2070   35.1920   C 0  0  0  0  0  0  0  0  0  0  0  0
   -3.1320  -20.1490   36.0520   O 0  0  0  0  0  0  0  0  0  0  0  0
   -0.9350  -21.1170   35.8430   C 0  0  0  0  0  0  0  0  0  0  0  0
   -1.3420  -22.5090   36.1880   N 0  0  0  0  0  0  0  0  0  0  0  0
   -0.8660  -22.9870   37.5170   C 0  0  0  0  0  0  0  0  0  0  0  0
    0.6400  -23.4170   37.4360   C 0  0  0  0  0  0  0  0  0  0  0  0
    0.8290  -24.4300   38.3890   O 0  0  0  0  0  0  0  0  0  0  0  0
    1.0550  -23.9250   36.0570   C 0  0  0  0  0  0  0  0  0  0  0  0
   -0.9790  -22.0060   38.7350   C 0  0  0  0  0  0  0  0  0  0  0  0
   -2.1460  -21.7690   39.4570   N 0  0  0  0  0  0  0  0  0  0  0  0
   -2.1950  -20.8350   40.6080   C 0  0  0  0  0  0  0  0  0  0  0  0
   -3.5610  -20.7250   41.3330   C 0  0  0  0  0  0  0  0  0  0  0  0
   -4.3310  -19.4920   40.8640   C 0  0  0  0  0  0  0  0  0  0  0  0
   -4.4220  -21.9630   41.1090   C 0  0  0  0  0  0  0  0  0  0  0  0
    0.0500  -21.4120   39.0810   O 0  0  0  0  0  0  0  0  0  0  0  0
    1.4270  -18.9970   35.5610   O 0  0  0  0  0  0  0  0  0  0  0  0
    1.8210  -18.1200   32.1130   C 0  0  0  0  0  0  0  0  0  0  0  0
    2.6980  -17.9920   31.0190   C 0  0  0  0  0  0  0  0  0  0  0  0
    2.3240  -17.1470   29.8010   C 0  0  0  0  0  0  0  0  0  0  0  0
    1.0100  -17.0080   29.3600   N 0  0  0  0  0  0  0  0  0  0  0  0
    0.4500  -16.2830   28.2100   C 0  0  0  0  0  0  0  0  0  0  0  0
   -0.7310  -15.4260   28.6750   C 0  0  0  0  0  0  0  0  0  0  0  0
   -0.0320  -17.2990   27.1650   C 0  0  0  0  0  0  0  0  0  0  0  0
    0.4810  -17.3040   25.8620   C 0  0  0  0  0  0  0  0  0  0  0  0
    0.0520  -18.2380   24.9120   C 0  0  0  0  0  0  0  0  0  0  0  0
   -0.8890  -19.2030   25.2450   C 0  0  0  0  0  0  0  0  0  0  0  0
   -1.4000  -19.2220   26.5340   C 0  0  0  0  0  0  0  0  0  0  0  0
   -0.9640  -18.2850   27.4680   C 0  0  0  0  0  0  0  0  0  0  0  0
    3.2020  -16.5400   29.1560   O 0  0  0  0  0  0  0  0  0  0  0  0
    3.8910  -18.7220   31.1130   C 0  0  0  0  0  0  0  0  0  0  0  0
 45 44  2  0  0  0  0
 45 46  1  0  0  0  0
 44 43  1  0  0  0  0
 46 47  2  0  0  0  0
 43 42  2  0  0  0  0
 47 42  1  0  0  0  0
 42 40  1  0  0  0  0
 40 41  1  0  0  0  0
 40 39  1  0  0  0  0
 23 24  1  0  0  0  0
 23 22  1  0  0  0  0
 21 20  1  0  0  0  0
 39 38  1  0  0  0  0
 20 22  1  0  0  0  0
 20 12  1  0  0  0  0
 24 25  1  0  0  0  0
 24 28  1  0  0  0  0
 15 16  2  0  0  0  0
 15 14  1  0  0  0  0
  6  3  2  0  0  0  0
 13 12  1  0  0  0  0
 13 14  1  0  0  0  0
 25 27  1  0  0  0  0
 25 26  1  0  0  0  0
 38 48  2  0  0  0  0
 38 37  1  0  0  0  0
 12 11  1  0  0  0  0
 11 10  1  0  0  0  0
 16 17  1  0  0  0  0
 14 19  2  0  0  0  0
 37 36  2  0  0  0  0
 37 49  1  0  0  0  0
 36  9  1  0  0  0  0
 32 31  1  0  0  0  0
 29 28  1  0  0  0  0
 29 30  1  0  0  0  0
 28 34  2  0  0  0  0
 49  7  2  0  0  0  0
  3  4  2  0  0  0  0
  3  2  1  0  0  0  0
  3  5  1  0  0  0  0
  9 10  1  0  0  0  0
  9  8  2  0  0  0  0
 10 35  2  0  0  0  0
  7  8  1  0  0  0  0
  7  2  1  0  0  0  0
 17 18  2  0  0  0  0
 19 18  1  0  0  0  0
 31 30  1  0  0  0  0
 31 33  1  0  0  0  0
  2  1  1  0  0  0  0
M  END
>  <InstanceId>
5DQC_5E7_A_401

>  <ChemCompId>
5E7

>  <PdbId>
5DQC

>  <ChainId>
A

>  <ResidueNumber>
401

>  <InsertionCode>


>  <Model>
1

>  <AltIds>


>  <MissingHeavyAtoms>
0

>  <ObservedFormula>
C36 N5 O7 S

>  <Name>
N-[(2S,3R)-3-hydroxy-4-({(2S,3S)-3-hydroxy-1-[(2-methylpropyl)amino]-1-oxobutan-2-yl}amino)-1-phenylbutan-2-yl]-5-[methyl(methylsulfonyl)amino]-N'-[(1R)-1-phenylethyl]benzene-1,3-dicarboxamide

>  <SystematicName>
5-[methyl(methylsulfonyl)amino]-N3-[(2S,3R)-4-[[(2S,3S)-1-(2-methylpropylamino)-3-oxidanyl-1-oxidanylidene-butan-2-yl]amino]-3-oxidanyl-1-phenyl-butan-2-yl]-N1-[(1R)-1-phenylethyl]benzene-1,3-dicarboxamide

>  <Synonyms>


>  <Type>
NON-POLYMER

>  <Formula>
C36 H49 N5 O7 S

>  <MolecularWeight>
695.869

>  <ModifiedDate>
2016-02-12

>  <Parent>


>  <OneLetterCode>


>  <SubcomponentList>


>  <AmbiguousFlag>
N

>  <InChI>
InChI=1S/C36H49N5O7S/c1-23(2)21-38-36(46)33(25(4)42)37-22-32(43)31(17-26-13-9-7-10-14-26)40-35(45)29-18-28(19-30(20-29)41(5)49(6,47)48)34(44)39-24(3)27-15-11-8-12-16-27/h7-16,18-20,23-25,31-33,37,42-43H,17,21-22H2,1-6H3,(H,38,46)(H,39,44)(H,40,45)/t24-,25+,31+,32-,33+/m1/s1

>  <InChIKey>
ZIEVAMMZKBNDFB-AAZBAGLXSA-N

>  <SMILES>
C[C@H](c1ccccc1)NC(=O)c2cc(cc(c2)N(C)S(=O)(=O)C)C(=O)N[C@@H](Cc3ccccc3)[C@@H](CN[C@@H]([C@H](C)O)C(=O)NCC(C)C)O

$$$$
