1C1V_BAB_H_410
  RCSB PDB08012014403D
Coordinates from PDB:1C1V:H:410 Model:1 without hydrogens
 25 28  0  0  0  0            999 V2000
   12.1640  -11.7770   22.9800   C 0  0  0  0  0  0  0  0  0  0  0  0
   12.5660  -10.6550   22.2230   C 0  0  0  0  0  0  0  0  0  0  0  0
   13.6090  -10.7610   21.2660   C 0  0  0  0  0  0  0  0  0  0  0  0
   14.1930  -12.0100   21.1190   C 0  0  0  0  0  0  0  0  0  0  0  0
   13.7970  -13.0620   21.8470   C 0  0  0  0  0  0  0  0  0  0  0  0
   12.8100  -13.0040   22.7690   C 0  0  0  0  0  0  0  0  0  0  0  0
   11.1770  -11.7600   23.9320   C 0  0  0  0  0  0  0  0  0  0  0  0
   15.3430  -13.7390   20.5970   C 0  0  0  0  0  0  0  0  0  0  0  0
   16.4040  -14.7280   19.9320   C 0  0  0  0  0  0  0  0  0  0  0  0
   10.4850  -12.8530   24.0440   N 0  3  0  0  0  0  0  0  0  0  0  0
   10.9930  -10.7000   24.6810   N 0  0  0  0  0  0  0  0  0  0  0  0
   15.1600  -12.4460   20.3430   N 0  0  0  0  0  0  0  0  0  0  0  0
   14.4980  -14.1150   21.5260   N 0  0  0  0  0  0  0  0  0  0  0  0
   16.6910  -13.0370   14.2030   C 0  0  0  0  0  0  0  0  0  0  0  0
   17.2910  -11.9340   14.8800   C 0  0  0  0  0  0  0  0  0  0  0  0
   17.4830  -11.9150   16.2530   C 0  0  0  0  0  0  0  0  0  0  0  0
   17.0610  -13.0210   16.9290   C 0  0  0  0  0  0  0  0  0  0  0  0
   16.4840  -14.1050   16.3550   C 0  0  0  0  0  0  0  0  0  0  0  0
   16.2780  -14.1630   14.9870   C 0  0  0  0  0  0  0  0  0  0  0  0
   16.5080  -12.9750   12.8200   C 0  0  0  0  0  0  0  0  0  0  0  0
   16.5740  -14.3440   18.4490   C 0  0  0  0  0  0  0  0  0  0  0  0
   16.1700  -14.0620   12.1630   N 0  3  0  0  0  0  0  0  0  0  0  0
   16.6580  -11.8150   12.2100   N 0  0  0  0  0  0  0  0  0  0  0  0
   17.1100  -13.1940   18.2100   N 0  3  0  0  0  0  0  0  0  0  0  0
   16.1850  -14.9370   17.3350   N 0  0  0  0  0  0  0  0  0  0  0  0
  1  2  1  0  0  0  0
  1  6  2  0  0  0  0
  1  7  1  0  0  0  0
  2  3  2  0  0  0  0
  3  4  1  0  0  0  0
  4  5  2  0  0  0  0
  4 12  1  0  0  0  0
  5  6  1  0  0  0  0
  5 13  1  0  0  0  0
  7 10  2  0  0  0  0
  7 11  1  0  0  0  0
  8  9  1  0  0  0  0
  8 12  2  0  0  0  0
  8 13  1  0  0  0  0
  9 21  1  0  0  0  0
 14 15  1  0  0  0  0
 14 19  2  0  0  0  0
 14 20  1  0  0  0  0
 15 16  2  0  0  0  0
 16 17  1  0  0  0  0
 17 18  2  0  0  0  0
 17 24  1  0  0  0  0
 18 19  1  0  0  0  0
 18 25  1  0  0  0  0
 20 22  2  0  0  0  0
 20 23  1  0  0  0  0
 21 24  2  0  0  0  0
 21 25  1  0  0  0  0
M  CHG  3  10   1  22   1  24   1
M  END
>  <InstanceId>
1C1V_BAB_H_410

>  <ChemCompId>
BAB

>  <PdbId>
1C1V

>  <ChainId>
H

>  <ResidueNumber>
410

>  <InsertionCode>


>  <Model>
1

>  <AltIds>


>  <MissingHeavyAtoms>
0

>  <ObservedFormula>
C17 N8

>  <Name>
BIS(5-AMIDINO-BENZIMIDAZOLYL)METHANE

>  <SystematicName>
[amino-[2-[[6-(amino-azaniumylidene-methyl)-1H-benzimidazol-3-ium-2-yl]methyl]-3H-benzimidazol-5-yl]methylidene]azanium

>  <Synonyms>


>  <Type>
NON-POLYMER

>  <Formula>
C17 H19 N8

>  <MolecularWeight>
335.386

>  <ModifiedDate>
2011-06-04

>  <Parent>


>  <OneLetterCode>


>  <SubcomponentList>


>  <AmbiguousFlag>
N

>  <InChI>
InChI=1S/C17H16N8/c18-16(19)8-1-3-10-12(5-8)24-14(22-10)7-15-23-11-4-2-9(17(20)21)6-13(11)25-15/h1-6H,7H2,(H3,18,19)(H3,20,21)(H,22,24)(H,23,25)/p+3

>  <InChIKey>
QZKOOEFIMWKZPK-UHFFFAOYSA-Q

>  <SMILES>
c1cc2c(cc1C(=[NH2+])N)[nH]c([nH+]2)Cc3[nH]c4cc(ccc4n3)C(=[NH2+])N

$$$$
