3SUU_OGN_A_2000
  RCSB PDB08012020303D
Coordinates from PDB:3SUU:A:2000 Model:1 without hydrogens
 25 26  0  0  0  0            999 V2000
   36.1910   18.5890  -16.0950   C 0  0  0  0  0  0  0  0  0  0  0  0
   35.2290   17.9830  -17.1500   C 0  0  0  0  0  0  0  0  0  0  0  0
   34.4030   16.8240  -16.5560   C 0  0  0  0  0  0  0  0  0  0  0  0
   34.9710   16.3290  -15.2180   C 0  0  0  0  0  0  0  0  0  0  0  0
   34.9530   17.4980  -14.2210   C 0  0  0  0  0  0  0  0  0  0  0  0
   35.4560   17.0660  -12.8490   C 0  0  0  0  0  0  0  0  0  0  0  0
   33.4330   19.6920  -17.1760   C 0  0  0  0  0  0  0  0  0  0  0  0
   32.5050   20.5000  -18.0730   C 0  0  0  0  0  0  0  0  0  0  0  0
   34.2910   18.9070  -17.8230   N 0  0  0  0  0  0  0  0  0  0  0  0
   34.3870   15.7610  -17.5010   O 0  0  0  0  0  0  0  0  0  0  0  0
   36.3120   15.8520  -15.4180   O 0  0  0  0  0  0  0  0  0  0  0  0
   35.7630   18.6190  -14.6960   O 0  0  0  0  0  0  0  0  0  0  0  0
   35.2640   18.1420  -11.9300   O 0  0  0  0  0  0  0  0  0  0  0  0
   33.3700   19.7720  -15.9560   O 0  0  0  0  0  0  0  0  0  0  0  0
   39.8310   20.5740  -14.5920   N 0  0  0  0  0  0  0  0  0  0  0  0
   38.8700   20.7410  -15.5030   C 0  0  0  0  0  0  0  0  0  0  0  0
   37.8340   19.9010  -15.3130   O 0  0  0  0  0  0  0  0  0  0  0  0
   38.8860   21.5650  -16.4170   O 0  0  0  0  0  0  0  0  0  0  0  0
   40.9790   21.2430  -14.4410   C 0  0  0  0  0  0  0  0  0  0  0  0
   41.9950   20.6350  -13.7020   C 0  0  0  0  0  0  0  0  0  0  0  0
   43.1990   21.3020  -13.4840   C 0  0  0  0  0  0  0  0  0  0  0  0
   43.3710   22.5820  -14.0090   C 0  0  0  0  0  0  0  0  0  0  0  0
   42.3590   23.2020  -14.7380   C 0  0  0  0  0  0  0  0  0  0  0  0
   41.1530   22.5320  -14.9480   C 0  0  0  0  0  0  0  0  0  0  0  0
   36.9110   19.8020  -16.4330   N 0  0  0  0  0  0  0  0  0  0  0  0
  1  2  1  0  0  0  0
  1 12  1  0  0  0  0
  1 25  2  0  0  0  0
  2  3  1  0  0  0  0
  2  9  1  0  0  0  0
  3  4  1  0  0  0  0
  3 10  1  0  0  0  0
  4  5  1  0  0  0  0
  4 11  1  0  0  0  0
  5  6  1  0  0  0  0
  5 12  1  0  0  0  0
  6 13  1  0  0  0  0
  7  8  1  0  0  0  0
  7  9  1  0  0  0  0
  7 14  2  0  0  0  0
 15 16  1  0  0  0  0
 15 19  1  0  0  0  0
 16 17  1  0  0  0  0
 16 18  2  0  0  0  0
 17 25  1  0  0  0  0
 19 20  2  0  0  0  0
 19 24  1  0  0  0  0
 20 21  1  0  0  0  0
 21 22  2  0  0  0  0
 22 23  1  0  0  0  0
 23 24  2  0  0  0  0
M  END
>  <InstanceId>
3SUU_OGN_A_2000

>  <ChemCompId>
OGN

>  <PdbId>
3SUU

>  <ChainId>
A

>  <ResidueNumber>
2000

>  <InsertionCode>


>  <Model>
1

>  <AltIds>


>  <MissingHeavyAtoms>
0

>  <ObservedFormula>
C15 N3 O7

>  <Name>
[(Z)-[(3R,4R,5R,6R)-3-acetamido-6-(hydroxymethyl)-4,5-bis(oxidanyl)oxan-2-ylidene]amino] N-phenylcarbamate

>  <SystematicName>
[(Z)-[(3R,4R,5R,6R)-3-acetamido-6-(hydroxymethyl)-4,5-bis(oxidanyl)oxan-2-ylidene]amino] N-phenylcarbamate

>  <Synonyms>
Gal-PUGNAc

>  <Type>
NON-POLYMER

>  <Formula>
C15 H19 N3 O7

>  <MolecularWeight>
353.327

>  <ModifiedDate>
2020-06-17

>  <Parent>


>  <OneLetterCode>


>  <SubcomponentList>


>  <AmbiguousFlag>
N

>  <InChI>
InChI=1S/C15H19N3O7/c1-8(20)16-11-13(22)12(21)10(7-19)24-14(11)18-25-15(23)17-9-5-3-2-4-6-9/h2-6,10-13,19,21-22H,7H2,1H3,(H,16,20)(H,17,23)/b18-14-/t10-,11-,12+,13-/m1/s1

>  <InChIKey>
PBLNJFVQMUMOJY-UYZOWNTJSA-N

>  <SMILES>
CC(=O)N[C@@H]\1[C@H]([C@H]([C@H](O/C1=N\OC(=O)Nc2ccccc2)CO)O)O

$$$$
