4HEG_G52_A_401
  RCSB PDB08012021553D
Coordinates from PDB:4HEG:A:401 Model:1 without hydrogens
 42 46  0  0  0  0            999 V2000
  -17.1880  -24.9920   20.0570   C 0  0  0  0  0  0  0  0  0  0  0  0
  -16.4290  -24.1480   20.8690   C 0  0  0  0  0  0  0  0  0  0  0  0
  -15.3570  -23.4220   20.3750   C 0  0  0  0  0  0  0  0  0  0  0  0
  -14.9840  -23.5920   19.0640   C 0  0  0  0  0  0  0  0  0  0  0  0
  -15.6740  -24.4960   18.2730   C 0  0  0  0  0  0  0  0  0  0  0  0
  -16.7490  -25.2360   18.7670   C 0  0  0  0  0  0  0  0  0  0  0  0
  -13.6540  -22.6550   18.4150   S 0  0  0  0  0  0  0  0  0  0  0  0
  -12.6980  -22.2680   19.5030   O 0  0  0  0  0  0  0  0  0  0  0  0
  -13.0050  -23.3820   17.3170   O 0  0  0  0  0  0  0  0  0  0  0  0
  -14.2430  -21.2570   17.7800   N 0  0  0  0  0  0  0  0  0  0  0  0
  -15.3470  -21.4120   16.8590   C 0  0  0  0  0  0  0  0  0  0  0  0
  -15.2960  -20.4400   15.6730   C 0  0  0  0  0  0  0  0  0  0  0  0
  -13.9670  -20.5070   14.9160   C 0  0  0  0  0  0  0  0  0  0  0  0
  -16.3980  -20.8070   14.6510   C 0  0  0  0  0  0  0  0  0  0  0  0
  -14.4210  -20.2080   18.7820   C 0  0  0  0  0  0  0  0  0  0  0  0
  -13.5890  -19.0000   18.3810   C 0  0  0  0  0  0  0  0  0  0  0  0
  -14.0640  -17.8150   19.0290   O 0  0  0  0  0  0  0  0  0  0  0  0
  -12.1010  -19.2340   18.6100   C 0  0  0  0  0  0  0  0  0  0  0  0
  -11.3190  -18.1920   17.9620   N 0  0  0  0  0  0  0  0  0  0  0  0
  -10.5230  -18.2750   16.8970   C 0  0  0  0  0  0  0  0  0  0  0  0
  -10.3330  -19.2820   16.1980   O 0  0  0  0  0  0  0  0  0  0  0  0
   -9.8900  -17.1060   16.6150   O 0  0  0  0  0  0  0  0  0  0  0  0
   -8.9320  -17.1460   15.5560   C 0  0  0  0  0  0  0  0  0  0  0  0
   -9.1640  -15.8920   14.7100   C 0  0  0  0  0  0  0  0  0  0  0  0
   -8.5050  -14.8250   15.3920   O 0  0  0  0  0  0  0  0  0  0  0  0
   -7.4510  -15.3400   16.2080   C 0  0  0  0  0  0  0  0  0  0  0  0
   -7.7430  -15.0080   17.5700   O 0  0  0  0  0  0  0  0  0  0  0  0
   -7.7160  -16.1470   18.4040   C 0  0  0  0  0  0  0  0  0  0  0  0
   -7.3000  -17.3290   17.5290   C 0  0  0  0  0  0  0  0  0  0  0  0
   -7.5230  -16.8530   16.1010   C 0  0  0  0  0  0  0  0  0  0  0  0
  -11.7530  -19.2700   20.1010   C 0  0  0  0  0  0  0  0  0  0  0  0
   -9.4430  -18.5220   20.7390   C 0  0  0  0  0  0  0  0  0  0  0  0
   -8.0870  -18.7650   20.8140   C 0  0  0  0  0  0  0  0  0  0  0  0
   -7.5780  -19.9990   20.4380   C 0  0  0  0  0  0  0  0  0  0  0  0
   -8.4250  -21.0540   20.1250   C 0  0  0  0  0  0  0  0  0  0  0  0
   -9.7810  -20.8160   20.0130   C 0  0  0  0  0  0  0  0  0  0  0  0
  -10.2700  -19.5520   20.2990   C 0  0  0  0  0  0  0  0  0  0  0  0
  -18.2190  -25.6270   20.6540   O 0  0  0  0  0  0  0  0  0  0  0  0
  -19.0440  -26.3760   19.7690   C 0  0  0  0  0  0  0  0  0  0  0  0
   -6.7030  -16.0380   19.4070   O 0  0  0  0  0  0  0  0  0  0  0  0
   -5.4810  -16.2230   18.7000   C 0  0  0  0  0  0  0  0  0  0  0  0
   -5.8010  -17.4430   17.8570   C 0  0  0  0  0  0  0  0  0  0  0  0
  2  1  2  0  0  0  0
 38  1  1  0  0  0  0
  1  6  1  0  0  0  0
  2  3  1  0  0  0  0
  3  4  2  0  0  0  0
  4  5  1  0  0  0  0
  4  7  1  0  0  0  0
  6  5  2  0  0  0  0
  8  7  2  0  0  0  0
  7  9  2  0  0  0  0
  7 10  1  0  0  0  0
 10 15  1  0  0  0  0
 10 11  1  0  0  0  0
 11 12  1  0  0  0  0
 13 12  1  0  0  0  0
 12 14  1  0  0  0  0
 15 16  1  0  0  0  0
 18 16  1  0  0  0  0
 16 17  1  0  0  0  0
 31 18  1  0  0  0  0
 18 19  1  0  0  0  0
 19 20  1  0  0  0  0
 21 20  2  0  0  0  0
 20 22  1  0  0  0  0
 22 23  1  0  0  0  0
 30 23  1  0  0  0  0
 23 24  1  0  0  0  0
 25 24  1  0  0  0  0
 26 25  1  0  0  0  0
 30 26  1  0  0  0  0
 27 26  1  0  0  0  0
 28 27  1  0  0  0  0
 40 28  1  0  0  0  0
 29 28  1  0  0  0  0
 42 29  1  0  0  0  0
 29 30  1  0  0  0  0
 37 31  1  0  0  0  0
 33 32  2  0  0  0  0
 32 37  1  0  0  0  0
 34 33  1  0  0  0  0
 34 35  2  0  0  0  0
 35 36  1  0  0  0  0
 36 37  2  0  0  0  0
 38 39  1  0  0  0  0
 41 40  1  0  0  0  0
 42 41  1  0  0  0  0
M  END
>  <InstanceId>
4HEG_G52_A_401

>  <ChemCompId>
G52

>  <PdbId>
4HEG

>  <ChainId>
A

>  <ResidueNumber>
401

>  <InsertionCode>


>  <Model>
1

>  <AltIds>


>  <MissingHeavyAtoms>
0

>  <ObservedFormula>
C30 N2 O9 S

>  <Name>
(3R,3aS,3bR,6aS,7aS)-octahydrodifuro[2,3-b:3',2'-d]furan-3-yl [(1S,2R)-1-benzyl-2-hydroxy-3-{[(4-methoxyphenyl)sulfonyl](2-methylpropyl)amino}propyl]carbamate

>  <SystematicName>


>  <Synonyms>


>  <Type>
NON-POLYMER

>  <Formula>
C30 H40 N2 O9 S

>  <MolecularWeight>
604.712

>  <ModifiedDate>
2011-06-04

>  <Parent>


>  <OneLetterCode>


>  <SubcomponentList>


>  <AmbiguousFlag>
N

>  <InChI>
InChI=1S/C30H40N2O9S/c1-19(2)16-32(42(35,36)22-11-9-21(37-3)10-12-22)17-25(33)24(15-20-7-5-4-6-8-20)31-30(34)40-26-18-39-29-27(26)23-13-14-38-28(23)41-29/h4-12,19,23-29,33H,13-18H2,1-3H3,(H,31,34)/t23-,24+,25-,26+,27+,28+,29+/m1/s1

>  <InChIKey>
QWMNYFXRFHGYGS-DDGGWZRMSA-N

>  <SMILES>
CC(C)C[N@@](C[C@H]([C@H](Cc1ccccc1)NC(=O)O[C@H]2CO[C@@H]3[C@H]2[C@H]4CCO[C@H]4O3)O)S(=O)(=O)c5ccc(cc5)OC

$$$$
