1M83_ATP_A_400
  RCSB PDB08012015263D
Coordinates from PDB:1M83:A:400 Model:1 without hydrogens
 31 33  0  0  0  0            999 V2000
   48.2440   21.5960   35.8000   P 0  0  0  0  0  0  0  0  0  0  0  0
   48.1050   22.1860   37.1570   O 0  0  0  0  0  0  0  0  0  0  0  0
   47.9310   20.1590   35.8950   O 0  0  0  0  0  0  0  0  0  0  0  0
   47.3560   22.2910   34.8250   O 0  0  0  0  0  0  0  0  0  0  0  0
   50.6660   23.0440   35.0130   P 0  0  0  0  0  0  0  0  0  0  0  0
   50.2430   24.3380   35.5960   O 0  0  0  0  0  0  0  0  0  0  0  0
   50.7530   23.2190   33.5540   O 0  0  0  0  0  0  0  0  0  0  0  0
   49.7530   21.7920   35.3010   O 0  0  0  0  0  0  0  0  0  0  0  0
   52.6680   22.2360   37.0620   P 0  0  0  0  0  0  0  0  0  0  0  0
   51.6380   22.7110   38.0080   O 0  0  0  0  0  0  0  0  0  0  0  0
   53.0180   20.8190   37.0900   O 0  0  0  0  0  0  0  0  0  0  0  0
   52.1230   22.6480   35.5880   O 0  0  0  0  0  0  0  0  0  0  0  0
   53.9570   23.0880   37.3040   O 0  0  0  0  0  0  0  0  0  0  0  0
   55.3050   22.7300   36.8240   C 0  0  0  0  0  0  0  0  0  0  0  0
   56.1220   23.9460   36.7050   C 0  0  0  0  0  0  0  0  0  0  0  0
   55.7620   24.7550   35.5660   O 0  0  0  0  0  0  0  0  0  0  0  0
   56.1940   24.9460   37.8820   C 0  0  0  0  0  0  0  0  0  0  0  0
   57.5380   25.3860   38.0820   O 0  0  0  0  0  0  0  0  0  0  0  0
   55.2690   26.0210   37.3250   C 0  0  0  0  0  0  0  0  0  0  0  0
   55.2190   27.2780   37.9580   O 0  0  0  0  0  0  0  0  0  0  0  0
   55.7050   26.1090   35.8530   C 0  0  0  0  0  0  0  0  0  0  0  0
   54.6120   26.6660   34.9420   N 0  0  0  0  0  0  0  0  0  0  0  0
   53.3090   26.1950   34.8310   C 0  0  0  0  0  0  0  0  0  0  0  0
   52.5690   26.8990   33.9250   N 0  0  0  0  0  0  0  0  0  0  0  0
   53.4490   27.8390   33.4470   C 0  0  0  0  0  0  0  0  0  0  0  0
   53.2620   28.8830   32.4530   C 0  0  0  0  0  0  0  0  0  0  0  0
   52.1300   29.1040   31.7920   N 0  0  0  0  0  0  0  0  0  0  0  0
   54.3760   29.6860   32.1980   N 0  0  0  0  0  0  0  0  0  0  0  0
   55.6240   29.5280   32.8410   C 0  0  0  0  0  0  0  0  0  0  0  0
   55.7850   28.5310   33.7920   N 0  0  0  0  0  0  0  0  0  0  0  0
   54.7160   27.7080   34.0740   C 0  0  0  0  0  0  0  0  0  0  0  0
  1  2  2  0  0  0  0
  1  3  1  0  0  0  0
  1  4  1  0  0  0  0
  1  8  1  0  0  0  0
  5  6  2  0  0  0  0
  5  7  1  0  0  0  0
  5  8  1  0  0  0  0
  5 12  1  0  0  0  0
  9 10  2  0  0  0  0
  9 11  1  0  0  0  0
  9 12  1  0  0  0  0
  9 13  1  0  0  0  0
 13 14  1  0  0  0  0
 14 15  1  0  0  0  0
 15 16  1  0  0  0  0
 15 17  1  0  0  0  0
 16 21  1  0  0  0  0
 17 18  1  0  0  0  0
 17 19  1  0  0  0  0
 19 20  1  0  0  0  0
 19 21  1  0  0  0  0
 21 22  1  0  0  0  0
 22 23  1  0  0  0  0
 22 31  1  0  0  0  0
 23 24  2  0  0  0  0
 24 25  1  0  0  0  0
 25 26  1  0  0  0  0
 25 31  2  0  0  0  0
 26 27  1  0  0  0  0
 26 28  2  0  0  0  0
 28 29  1  0  0  0  0
 29 30  2  0  0  0  0
 30 31  1  0  0  0  0
M  END
>  <InstanceId>
1M83_ATP_A_400

>  <ChemCompId>
ATP

>  <PdbId>
1M83

>  <ChainId>
A

>  <ResidueNumber>
400

>  <InsertionCode>


>  <Model>
1

>  <AltIds>


>  <MissingHeavyAtoms>
0

>  <ObservedFormula>
C10 N5 O13 P3

>  <Name>
ADENOSINE-5'-TRIPHOSPHATE

>  <SystematicName>
[[(2R,3S,4R,5R)-5-(6-aminopurin-9-yl)-3,4-dihydroxy-oxolan-2-yl]methoxy-hydroxy-phosphoryl] phosphono hydrogen phosphate

>  <Synonyms>


>  <Type>
NON-POLYMER

>  <Formula>
C10 H16 N5 O13 P3

>  <MolecularWeight>
507.181

>  <ModifiedDate>
2011-06-04

>  <Parent>


>  <OneLetterCode>


>  <SubcomponentList>


>  <AmbiguousFlag>
N

>  <InChI>
InChI=1S/C10H16N5O13P3/c11-8-5-9(13-2-12-8)15(3-14-5)10-7(17)6(16)4(26-10)1-25-30(21,22)28-31(23,24)27-29(18,19)20/h2-4,6-7,10,16-17H,1H2,(H,21,22)(H,23,24)(H2,11,12,13)(H2,18,19,20)/t4-,6-,7-,10-/m1/s1

>  <InChIKey>
ZKHQWZAMYRWXGA-KQYNXXCUSA-N

>  <SMILES>
c1nc(c2c(n1)n(cn2)[C@H]3[C@@H]([C@@H]([C@H](O3)CO[P@@](=O)(O)O[P@](=O)(O)OP(=O)(O)O)O)O)N

$$$$
