3NEO_G24_A_1
  RCSB PDB08012019543D
Coordinates from PDB:3NEO:A:1 Model:1 without hydrogens
 28 30  0  0  0  0            999 V2000
   21.3500   -2.4670  -22.5690   C 0  0  0  0  0  0  0  0  0  0  0  0
   20.6680   -2.6870  -21.3710   C 0  0  0  0  0  0  0  0  0  0  0  0
   20.4240   -1.6400  -20.4850   C 0  0  0  0  0  0  0  0  0  0  0  0
   20.8730   -0.3600  -20.8100   C 0  0  0  0  0  0  0  0  0  0  0  0
   21.5670   -0.1750  -22.0530   C 0  0  0  0  0  0  0  0  0  0  0  0
   21.7640   -1.1830  -22.8770   C 0  0  0  0  0  0  0  0  0  0  0  0
   22.5350   -0.8100  -24.1200   C 0  0  0  0  0  0  0  0  0  0  0  0
   21.7450   -0.0210  -25.1610   C 0  0  0  0  0  0  0  0  0  0  0  0
   21.9360   -0.5680  -26.3940   C 0  0  0  0  0  0  0  0  0  0  0  0
   20.9350    1.1210  -25.0520   C 0  0  0  0  0  0  0  0  0  0  0  0
   20.7120    1.7630  -23.8580   O 0  0  0  0  0  0  0  0  0  0  0  0
   20.3360    1.6520  -26.2000   C 0  0  0  0  0  0  0  0  0  0  0  0
   20.5420    1.0660  -27.4490   C 0  0  0  0  0  0  0  0  0  0  0  0
   21.3550   -0.0520  -27.5080   C 0  0  0  0  0  0  0  0  0  0  0  0
   21.7090   -0.8420  -28.7160   C 0  0  0  0  0  0  0  0  0  0  0  0
   21.4020   -0.1750  -29.9980   C 0  0  0  0  0  0  0  0  0  0  0  0
   20.3040   -0.6220  -30.7090   C 0  0  0  0  0  0  0  0  0  0  0  0
   19.4500   -1.7390  -30.1050   C 0  0  0  0  0  0  0  0  0  0  0  0
   19.9840   -0.0550  -31.9310   C 0  0  0  0  0  0  0  0  0  0  0  0
   22.2120    0.8300  -30.5030   C 0  0  0  0  0  0  0  0  0  0  0  0
   23.4320    1.2980  -29.6990   C 0  0  0  0  0  0  0  0  0  0  0  0
   21.9020    1.4030  -31.7240   C 0  0  0  0  0  0  0  0  0  0  0  0
   20.7910    0.9600  -32.4300   C 0  0  0  0  0  0  0  0  0  0  0  0
   20.5130    1.5380  -33.6230   O 0  0  0  0  0  0  0  0  0  0  0  0
   21.4190    2.6210  -33.8100   C 0  0  0  0  0  0  0  0  0  0  0  0
   22.5760    2.2620  -34.7420   C 0  0  0  0  0  0  0  0  0  0  0  0
   22.5230    2.6760  -35.9200   O 0  0  0  0  0  0  0  0  0  0  0  0
   23.5180    1.5870  -34.2770   O 0  0  0  0  0  0  0  0  0  0  0  0
  1  2  2  0  0  0  0
  1  6  1  0  0  0  0
  2  3  1  0  0  0  0
  3  4  2  0  0  0  0
  4  5  1  0  0  0  0
  5  6  2  0  0  0  0
  6  7  1  0  0  0  0
  7  8  1  0  0  0  0
  8  9  2  0  0  0  0
  8 10  1  0  0  0  0
  9 14  1  0  0  0  0
 10 11  1  0  0  0  0
 10 12  2  0  0  0  0
 12 13  1  0  0  0  0
 13 14  2  0  0  0  0
 14 15  1  0  0  0  0
 15 16  1  0  0  0  0
 16 17  2  0  0  0  0
 16 20  1  0  0  0  0
 17 18  1  0  0  0  0
 17 19  1  0  0  0  0
 19 23  2  0  0  0  0
 20 21  1  0  0  0  0
 20 22  2  0  0  0  0
 22 23  1  0  0  0  0
 23 24  1  0  0  0  0
 24 25  1  0  0  0  0
 25 26  1  0  0  0  0
 26 27  1  0  0  0  0
 26 28  2  0  0  0  0
M  END
>  <InstanceId>
3NEO_G24_A_1

>  <ChemCompId>
G24

>  <PdbId>
3NEO

>  <ChainId>
A

>  <ResidueNumber>
1

>  <InsertionCode>


>  <Model>
1

>  <AltIds>


>  <MissingHeavyAtoms>
0

>  <ObservedFormula>
C24 O4

>  <Name>
[4-(3-BENZYL-4-HYDROXYBENZYL)-3,5-DIMETHYLPHENOXY]ACETIC ACID

>  <SystematicName>
2-[4-[[4-hydroxy-3-(phenylmethyl)phenyl]methyl]-3,5-dimethyl-phenoxy]ethanoic acid

>  <Synonyms>
GC-24

>  <Type>
NON-POLYMER

>  <Formula>
C24 H24 O4

>  <MolecularWeight>
376.445

>  <ModifiedDate>
2020-06-17

>  <Parent>


>  <OneLetterCode>


>  <SubcomponentList>


>  <AmbiguousFlag>
N

>  <InChI>
InChI=1S/C24H24O4/c1-16-10-21(28-15-24(26)27)11-17(2)22(16)14-19-8-9-23(25)20(13-19)12-18-6-4-3-5-7-18/h3-11,13,25H,12,14-15H2,1-2H3,(H,26,27)

>  <InChIKey>
JYHIGYLGYNCMGI-UHFFFAOYSA-N

>  <SMILES>
Cc1cc(cc(c1Cc2ccc(c(c2)Cc3ccccc3)O)C)OCC(=O)O

$$$$
