4YSL_GSH_A_302
  RCSB PDB08022000323D
Coordinates from PDB:4YSL:A:302 Model:1 without hydrogens
 20 19  0  0  0  0            999 V2000
  -23.7780   25.5880  -21.1470   N 0  0  0  0  0  0  0  0  0  0  0  0
  -24.2470   24.8970  -19.9930   C 0  0  0  0  0  0  0  0  0  0  0  0
  -24.3150   23.4050  -20.2550   C 0  0  0  0  0  0  0  0  0  0  0  0
  -24.2760   22.9790  -21.4460   O 0  0  0  0  0  0  0  0  0  0  0  0
  -24.4250   22.5950  -19.2900   O 0  0  0  0  0  0  0  0  0  0  0  0
  -25.6290   25.3920  -19.6280   C 0  0  0  0  0  0  0  0  0  0  0  0
  -25.7200   25.1740  -18.1440   C 0  0  0  0  0  0  0  0  0  0  0  0
  -27.0030   25.6990  -17.5710   C 0  0  0  0  0  0  0  0  0  0  0  0
  -27.9230   26.0590  -18.2750   O 0  0  0  0  0  0  0  0  0  0  0  0
  -27.0770   25.7670  -16.1620   N 0  0  0  0  0  0  0  0  0  0  0  0
  -28.2600   26.2260  -15.5440   C 0  0  0  0  0  0  0  0  0  0  0  0
  -28.3310   27.7710  -15.4280   C 0  0  0  0  0  0  0  0  0  0  0  0
  -29.1810   28.2090  -14.6940   O 0  0  0  0  0  0  0  0  0  0  0  0
  -28.4600   25.4070  -14.2430   C 0  0  0  0  0  0  0  0  0  0  0  0
  -28.8850   23.6670  -14.5250   S 0  0  0  0  0  0  0  0  0  0  0  0
  -27.5800   28.8090  -16.1100   N 0  0  0  0  0  0  0  0  0  0  0  0
  -27.9630   30.1820  -15.7610   C 0  0  0  0  0  0  0  0  0  0  0  0
  -27.4880   31.4440  -16.5270   C 0  0  0  0  0  0  0  0  0  0  0  0
  -26.5470   31.3350  -17.3670   O 0  0  0  0  0  0  0  0  0  0  0  0
  -28.0120   32.6210  -16.3410   O 0  0  0  0  0  0  0  0  0  0  0  0
  1  2  1  0  0  0  0
  2  3  1  0  0  0  0
  2  6  1  0  0  0  0
  3  4  2  0  0  0  0
  3  5  1  0  0  0  0
  6  7  1  0  0  0  0
  7  8  1  0  0  0  0
  8  9  2  0  0  0  0
  8 10  1  0  0  0  0
 10 11  1  0  0  0  0
 11 12  1  0  0  0  0
 11 14  1  0  0  0  0
 12 13  2  0  0  0  0
 12 16  1  0  0  0  0
 14 15  1  0  0  0  0
 16 17  1  0  0  0  0
 17 18  1  0  0  0  0
 18 19  2  0  0  0  0
 18 20  1  0  0  0  0
M  END
>  <InstanceId>
4YSL_GSH_A_302

>  <ChemCompId>
GSH

>  <PdbId>
4YSL

>  <ChainId>
A

>  <ResidueNumber>
302

>  <InsertionCode>


>  <Model>
1

>  <AltIds>


>  <MissingHeavyAtoms>
0

>  <ObservedFormula>
C10 N3 O6 S

>  <Name>
GLUTATHIONE

>  <SystematicName>
(2S)-2-azanyl-5-[[(2R)-1-(2-hydroxy-2-oxoethylamino)-1-oxidanylidene-3-sulfanyl-propan-2-yl]amino]-5-oxidanylidene-pentanoic acid

>  <Synonyms>


>  <Type>
NON-POLYMER

>  <Formula>
C10 H17 N3 O6 S

>  <MolecularWeight>
307.323

>  <ModifiedDate>
2014-04-22

>  <Parent>


>  <OneLetterCode>


>  <SubcomponentList>


>  <AmbiguousFlag>
N

>  <InChI>
InChI=1S/C10H17N3O6S/c11-5(10(18)19)1-2-7(14)13-6(4-20)9(17)12-3-8(15)16/h5-6,20H,1-4,11H2,(H,12,17)(H,13,14)(H,15,16)(H,18,19)/t5-,6-/m0/s1

>  <InChIKey>
RWSXRVCMGQZWBV-WDSKDSINSA-N

>  <SMILES>
C(CC(=O)N[C@@H](CS)C(=O)NCC(=O)O)[C@@H](C(=O)O)N

$$$$
