4BUP_SAM_A_500
  RCSB PDB08012021173D
Coordinates from PDB:4BUP:A:500 Model:1 without hydrogens
 27 29  0  0  0  0            999 V2000
    7.6930   49.4820   10.6770   N 0  0  0  0  0  0  0  0  0  0  0  0
    6.3230   49.2840   10.2050   C 0  0  0  0  0  0  0  0  0  0  0  0
    5.4110   50.1840   11.0220   C 0  0  0  0  0  0  0  0  0  0  0  0
    5.7610   50.5370   12.1530   O 0  0  0  0  0  0  0  0  0  0  0  0
    4.3200   50.5570   10.5740   O 0  5  0  0  0  0  0  0  0  0  0  0
    5.8890   47.8320   10.3690   C 0  0  0  0  0  0  0  0  0  0  0  0
    6.0820   46.9700    9.1210   C 0  0  0  0  0  0  0  0  0  0  0  0
    4.9270   47.4570    7.8060   S 0  3  0  0  0  0  0  0  0  0  0  0
    4.2350   45.8580    7.2730   C 0  0  0  0  0  0  0  0  0  0  0  0
    6.0920   47.7040    6.4320   C 0  0  0  0  0  0  0  0  0  0  0  0
    6.6430   49.1270    6.3380   C 0  0  0  0  0  0  0  0  0  0  0  0
    7.6480   49.3400    7.3140   O 0  0  0  0  0  0  0  0  0  0  0  0
    7.2910   49.4570    4.9960   C 0  0  0  0  0  0  0  0  0  0  0  0
    6.3970   49.9800    4.0590   O 0  0  0  0  0  0  0  0  0  0  0  0
    8.2640   50.5260    5.4030   C 0  0  0  0  0  0  0  0  0  0  0  0
    7.5710   51.7060    5.6980   O 0  0  0  0  0  0  0  0  0  0  0  0
    8.7690   49.9450    6.7050   C 0  0  0  0  0  0  0  0  0  0  0  0
    9.7050   48.8580    6.3840   N 0  0  0  0  0  0  0  0  0  0  0  0
    9.6900   47.5930    6.9150   C 0  0  0  0  0  0  0  0  0  0  0  0
   10.6990   46.8650    6.3620   N 0  0  0  0  0  0  0  0  0  0  0  0
   11.3510   47.6460    5.4730   C 0  0  0  0  0  0  0  0  0  0  0  0
   12.4380   47.4210    4.6380   C 0  0  0  0  0  0  0  0  0  0  0  0
   13.0720   46.2570    4.5960   N 0  0  0  0  0  0  0  0  0  0  0  0
   12.8690   48.4350    3.8170   N 0  0  0  0  0  0  0  0  0  0  0  0
   12.2450   49.6680    3.8290   C 0  0  0  0  0  0  0  0  0  0  0  0
   11.1760   49.8850    4.6550   N 0  0  0  0  0  0  0  0  0  0  0  0
   10.7290   48.9020    5.4690   C 0  0  0  0  0  0  0  0  0  0  0  0
  1  2  1  0  0  0  0
  2  3  1  0  0  0  0
  2  6  1  0  0  0  0
  3  4  2  0  0  0  0
  3  5  1  0  0  0  0
  6  7  1  0  0  0  0
  7  8  1  0  0  0  0
  8  9  1  0  0  0  0
  8 10  1  0  0  0  0
 10 11  1  0  0  0  0
 11 12  1  0  0  0  0
 11 13  1  0  0  0  0
 12 17  1  0  0  0  0
 13 14  1  0  0  0  0
 13 15  1  0  0  0  0
 15 16  1  0  0  0  0
 15 17  1  0  0  0  0
 17 18  1  0  0  0  0
 18 19  1  0  0  0  0
 18 27  1  0  0  0  0
 19 20  2  0  0  0  0
 20 21  1  0  0  0  0
 21 22  1  0  0  0  0
 21 27  2  0  0  0  0
 22 23  1  0  0  0  0
 22 24  2  0  0  0  0
 24 25  1  0  0  0  0
 25 26  2  0  0  0  0
 26 27  1  0  0  0  0
M  CHG  2   5  -1   8   1
M  END
>  <InstanceId>
4BUP_SAM_A_500

>  <ChemCompId>
SAM

>  <PdbId>
4BUP

>  <ChainId>
A

>  <ResidueNumber>
500

>  <InsertionCode>


>  <Model>
1

>  <AltIds>


>  <MissingHeavyAtoms>
0

>  <ObservedFormula>
C15 N6 O5 S

>  <Name>
S-ADENOSYLMETHIONINE

>  <SystematicName>
(2S)-2-amino-4-[[(2S,3S,4R,5R)-5-(6-aminopurin-9-yl)-3,4-dihydroxy-oxolan-2-yl]methyl-methyl-sulfonio]butanoate

>  <Synonyms>


>  <Type>
NON-POLYMER

>  <Formula>
C15 H22 N6 O5 S

>  <MolecularWeight>
398.437

>  <ModifiedDate>
2011-06-04

>  <Parent>


>  <OneLetterCode>


>  <SubcomponentList>


>  <AmbiguousFlag>
N

>  <InChI>
InChI=1S/C15H22N6O5S/c1-27(3-2-7(16)15(24)25)4-8-10(22)11(23)14(26-8)21-6-20-9-12(17)18-5-19-13(9)21/h5-8,10-11,14,22-23H,2-4,16H2,1H3,(H2-,17,18,19,24,25)/t7-,8+,10+,11+,14+,27-/m0/s1

>  <InChIKey>
MEFKEPWMEQBLKI-FCKMPRQPSA-N

>  <SMILES>
C[S@@+](CC[C@@H](C(=O)[O-])N)C[C@@H]1[C@H]([C@H]([C@@H](O1)n2cnc3c2ncnc3N)O)O

$$$$
