3EKR_PY9_A_901
  RCSB PDB08012018563D
Coordinates from PDB:3EKR:A:901 Model:1 without hydrogens
 22 24  0  0  0  0            999 V2000
   17.1140   -3.7120   51.0650   N 0  0  0  0  0  0  0  0  0  0  0  0
   15.2170    0.8970   49.6930   C 0  0  0  0  0  0  0  0  0  0  0  0
   16.5820    0.6770   49.3700   C 0  0  0  0  0  0  0  0  0  0  0  0
   17.1030   -0.6460   49.4040   C 0  0  0  0  0  0  0  0  0  0  0  0
   16.8290   -3.1190   49.8050   C 0  0  0  0  0  0  0  0  0  0  0  0
   16.9380   -3.1630   52.4490   C 0  0  0  0  0  0  0  0  0  0  0  0
   17.8680   -5.4040   52.5880   C 0  0  0  0  0  0  0  0  0  0  0  0
   14.4900   -4.0780   52.5680   C 0  0  0  0  0  0  0  0  0  0  0  0
   12.7880   -3.0890   54.0340   C 0  0  0  0  0  0  0  0  0  0  0  0
   15.0820   -2.1400   54.0060   C 0  0  0  0  0  0  0  0  0  0  0  0
   13.1620   -4.0530   53.0730   C 0  0  0  0  0  0  0  0  0  0  0  0
   14.8930   -1.5000   50.0740   C 0  0  0  0  0  0  0  0  0  0  0  0
   13.7350   -2.1430   54.4960   C 0  0  0  0  0  0  0  0  0  0  0  0
   14.3690   -0.1820   50.0430   C 0  0  0  0  0  0  0  0  0  0  0  0
   16.2670   -1.7390   49.7580   C 0  0  0  0  0  0  0  0  0  0  0  0
   15.4870   -3.1320   53.0130   C 0  0  0  0  0  0  0  0  0  0  0  0
   17.8840   -4.0440   53.2820   C 0  0  0  0  0  0  0  0  0  0  0  0
   17.6810   -5.0660   51.1140   C 0  0  0  0  0  0  0  0  0  0  0  0
   16.0250   -1.0880   54.5570   C 0  0  0  0  0  0  0  0  0  0  0  0
   17.0280   -3.6660   48.7170   O 0  0  0  0  0  0  0  0  0  0  0  0
   14.6890    2.1500   49.6810   O 0  0  0  0  0  0  0  0  0  0  0  0
   18.4180   -0.8030   49.0880   O 0  0  0  0  0  0  0  0  0  0  0  0
  5  1  1  0  0  0  0
  1 18  1  0  0  0  0
  1  6  1  0  0  0  0
  3  2  2  0  0  0  0
 21  2  1  0  0  0  0
  2 14  1  0  0  0  0
  3  4  1  0  0  0  0
 22  4  1  0  0  0  0
  4 15  2  0  0  0  0
 20  5  2  0  0  0  0
 15  5  1  0  0  0  0
  6 16  1  0  0  0  0
  6 17  1  0  0  0  0
 18  7  1  0  0  0  0
  7 17  1  0  0  0  0
  8 16  2  0  0  0  0
  8 11  1  0  0  0  0
 11  9  2  0  0  0  0
  9 13  1  0  0  0  0
 16 10  1  0  0  0  0
 10 13  2  0  0  0  0
 10 19  1  0  0  0  0
 15 12  1  0  0  0  0
 14 12  2  0  0  0  0
M  END
>  <InstanceId>
3EKR_PY9_A_901

>  <ChemCompId>
PY9

>  <PdbId>
3EKR

>  <ChainId>
A

>  <ResidueNumber>
901

>  <InsertionCode>


>  <Model>
1

>  <AltIds>


>  <MissingHeavyAtoms>
0

>  <ObservedFormula>
C18 N O3

>  <Name>
4-{[(2R)-2-(2-methylphenyl)pyrrolidin-1-yl]carbonyl}benzene-1,3-diol

>  <SystematicName>
(2,4-dihydroxyphenyl)-[(2R)-2-(2-methylphenyl)pyrrolidin-1-yl]methanone

>  <Synonyms>


>  <Type>
NON-POLYMER

>  <Formula>
C18 H19 N O3

>  <MolecularWeight>
297.348

>  <ModifiedDate>
2011-06-04

>  <Parent>


>  <OneLetterCode>


>  <SubcomponentList>


>  <AmbiguousFlag>
N

>  <InChI>
InChI=1S/C18H19NO3/c1-12-5-2-3-6-14(12)16-7-4-10-19(16)18(22)15-9-8-13(20)11-17(15)21/h2-3,5-6,8-9,11,16,20-21H,4,7,10H2,1H3/t16-/m1/s1

>  <InChIKey>
TWODFUZHWYZBHZ-MRXNPFEDSA-N

>  <SMILES>
Cc1ccccc1[C@H]2CCCN2C(=O)c3ccc(cc3O)O

$$$$
