6EYA_C4K_A_301
  RCSB PDB08022004353D
Coordinates from PDB:6EYA:A:301 Model:1 without hydrogens
 31 35  0  0  0  0            999 V2000
   65.9470   34.3770   23.9460   C 0  0  0  0  0  0  0  0  0  0  0  0
   64.7540   34.0340   24.6450   C 0  0  0  0  0  0  0  0  0  0  0  0
   64.8000   33.3560   25.8530   C 0  0  0  0  0  0  0  0  0  0  0  0
   63.5460   34.3180   24.0970   O 0  0  0  0  0  0  0  0  0  0  0  0
   67.2470   33.4330   25.7700   C 0  0  0  0  0  0  0  0  0  0  0  0
   66.0430   33.0690   26.4340   C 0  0  0  0  0  0  0  0  0  0  0  0
   68.3350   32.9760   26.6340   C 0  0  0  0  0  0  0  0  0  0  0  0
   69.8190   33.1860   26.4500   C 0  0  0  0  0  0  0  0  0  0  0  0
   70.4980   32.5730   25.2550   C 0  0  0  0  0  0  0  0  0  0  0  0
   70.9100   33.4260   24.2440   C 0  0  0  0  0  0  0  0  0  0  0  0
   71.9900   31.6010   23.0750   C 0  0  0  0  0  0  0  0  0  0  0  0
   70.8720   31.2240   25.2020   C 0  0  0  0  0  0  0  0  0  0  0  0
   71.9870   29.3250   23.9660   C 0  0  0  0  0  0  0  0  0  0  0  0
   69.6250   37.3410   24.1460   C 0  0  0  0  0  0  0  0  0  0  0  0
   68.7190   36.8780   23.2000   C 0  0  0  0  0  0  0  0  0  0  0  0
   66.8610   37.4540   24.6580   C 0  0  0  0  0  0  0  0  0  0  0  0
   66.4460   36.3760   22.4970   N 0  0  0  0  0  0  0  0  0  0  0  0
   69.1500   37.8530   25.3550   C 0  0  0  0  0  0  0  0  0  0  0  0
   68.8160   39.1130   27.1700   C 0  0  0  0  0  0  0  0  0  0  0  0
   67.1920   34.0500   24.5150   C 0  0  0  0  0  0  0  0  0  0  0  0
   65.8370   35.1520   22.6750   C 0  0  0  0  0  0  0  0  0  0  0  0
   65.0860   34.7120   21.8150   O 0  0  0  0  0  0  0  0  0  0  0  0
   66.4080   32.4750   27.6110   N 0  0  0  0  0  0  0  0  0  0  0  0
   67.7960   32.4850   27.7140   N 0  0  0  0  0  0  0  0  0  0  0  0
   71.6190   30.7600   24.1040   C 0  0  0  0  0  0  0  0  0  0  0  0
   71.6350   32.9290   23.1610   C 0  0  0  0  0  0  0  0  0  0  0  0
   67.3340   36.9210   23.4500   C 0  0  0  0  0  0  0  0  0  0  0  0
   66.2930   37.1140   21.2320   C 0  0  0  0  0  0  0  0  0  0  0  0
   67.7700   37.8970   25.6130   C 0  0  0  0  0  0  0  0  0  0  0  0
   67.5810   38.4400   26.8470   O 0  0  0  0  0  0  0  0  0  0  0  0
   69.8110   38.3760   26.4330   O 0  0  0  0  0  0  0  0  0  0  0  0
 28 17  1  0  0  0  0
 22 21  2  0  0  0  0
 17 21  1  0  0  0  0
 17 27  1  0  0  0  0
 21  1  1  0  0  0  0
 11 26  2  0  0  0  0
 11 25  1  0  0  0  0
 26 10  1  0  0  0  0
 15 27  2  0  0  0  0
 15 14  1  0  0  0  0
 27 16  1  0  0  0  0
  1 20  2  0  0  0  0
  1  2  1  0  0  0  0
 13 25  1  0  0  0  0
  4  2  1  0  0  0  0
 25 12  2  0  0  0  0
 14 18  2  0  0  0  0
 10  9  2  0  0  0  0
 20  5  1  0  0  0  0
  2  3  2  0  0  0  0
 16 29  2  0  0  0  0
 12  9  1  0  0  0  0
  9  8  1  0  0  0  0
 18 29  1  0  0  0  0
 18 31  1  0  0  0  0
 29 30  1  0  0  0  0
  5  6  2  0  0  0  0
  5  7  1  0  0  0  0
  3  6  1  0  0  0  0
 31 19  1  0  0  0  0
  6 23  1  0  0  0  0
  8  7  1  0  0  0  0
  7 24  2  0  0  0  0
 30 19  1  0  0  0  0
 23 24  1  0  0  0  0
M  END
>  <InstanceId>
6EYA_C4K_A_301

>  <ChemCompId>
C4K

>  <PdbId>
6EYA

>  <ChainId>
A

>  <ResidueNumber>
301

>  <InsertionCode>


>  <Model>
1

>  <AltIds>


>  <MissingHeavyAtoms>
0

>  <ObservedFormula>
C24 N3 O4

>  <Name>
~{N}-(1,3-benzodioxol-5-yl)-~{N}-methyl-3-[(3-methylphenyl)methyl]-6-oxidanyl-1~{H}-indazole-5-carboxamide

>  <SystematicName>
~{N}-(1,3-benzodioxol-5-yl)-~{N}-methyl-3-[(3-methylphenyl)methyl]-6-oxidanyl-1~{H}-indazole-5-carboxamide

>  <Synonyms>


>  <Type>
NON-POLYMER

>  <Formula>
C24 H21 N3 O4

>  <MolecularWeight>
415.441

>  <ModifiedDate>
2018-05-25

>  <Parent>


>  <OneLetterCode>


>  <SubcomponentList>


>  <AmbiguousFlag>
N

>  <InChI>
InChI=1S/C24H21N3O4/c1-14-4-3-5-15(8-14)9-19-17-11-18(21(28)12-20(17)26-25-19)24(29)27(2)16-6-7-22-23(10-16)31-13-30-22/h3-8,10-12,28H,9,13H2,1-2H3,(H,25,26)

>  <InChIKey>
YXZVBNOPBJFEOP-UHFFFAOYSA-N

>  <SMILES>
Cc1cccc(c1)Cc2c3cc(c(cc3[nH]n2)O)C(=O)N(C)c4ccc5c(c4)OCO5

$$$$
