3P4V_PMX_A_300
  RCSB PDB08012020063D
Coordinates from PDB:3P4V:A:300 Model:1 without hydrogens
 22 22  0  0  0  0            999 V2000
   17.2030    5.8910   10.7410   C 0  0  0  0  0  0  0  0  0  0  0  0
   17.7600    5.8990   13.1530   N 0  0  0  0  0  0  0  0  0  0  0  0
   17.1860    4.6670   10.7390   O 0  0  0  0  0  0  0  0  0  0  0  0
   18.8440   12.5130   12.2970  Cl 0  0  0  0  0  0  0  0  0  0  0  0
   17.7150    6.6690   11.9200   C 0  0  0  0  0  0  0  0  0  0  0  0
   19.0160    7.4160   11.6430   C 0  0  0  0  0  0  0  0  0  0  0  0
   19.3270    8.6310   12.5030   C 0  0  0  0  0  0  0  0  0  0  0  0
   15.5140    6.1210   13.6470   O 0  0  0  0  0  0  0  0  0  0  0  0
   20.3140    9.6950   14.6370   C 0  0  0  0  0  0  0  0  0  0  0  0
   15.5870    4.3200   15.5060   C 0  0  0  0  0  0  0  0  0  0  0  0
   16.6530    4.6740   14.9560   C 0  0  0  0  0  0  0  0  0  0  0  0
   16.5790    5.5950   13.9220   C 0  0  0  0  0  0  0  0  0  0  0  0
   19.9200   11.0340   14.1140   C 0  0  0  0  0  0  0  0  0  0  0  0
   20.1980   12.1780   14.8460   O 0  0  0  0  0  0  0  0  0  0  0  0
   16.7660    2.9910   17.1030   O 0  0  0  0  0  0  0  0  0  0  0  0
   15.6490    3.3560   16.6560   C 0  0  0  0  0  0  0  0  0  0  0  0
   19.2470   11.1610   12.8130   C 0  0  0  0  0  0  0  0  0  0  0  0
   14.5670    2.8620   17.1050   O 0  0  0  0  0  0  0  0  0  0  0  0
   14.5490    2.1570   18.3050   C 0  0  0  0  0  0  0  0  0  0  0  0
   18.9550    9.9270   12.0080   C 0  0  0  0  0  0  0  0  0  0  0  0
   20.0260    8.4970   13.8490   C 0  0  0  0  0  0  0  0  0  0  0  0
   16.6770    6.5580    9.6600   O 0  0  0  0  0  0  0  0  0  0  0  0
  1  3  2  0  0  0  0
  1  5  1  0  0  0  0
  1 22  1  0  0  0  0
  2  5  1  0  0  0  0
  2 12  1  0  0  0  0
  4 17  1  0  0  0  0
  5  6  1  0  0  0  0
  6  7  1  0  0  0  0
  7 20  2  0  0  0  0
  7 21  1  0  0  0  0
  8 12  2  0  0  0  0
  9 13  1  0  0  0  0
  9 21  2  0  0  0  0
 10 11  2  0  0  0  0
 10 16  1  0  0  0  0
 11 12  1  0  0  0  0
 13 14  1  0  0  0  0
 13 17  2  0  0  0  0
 15 16  2  0  0  0  0
 16 18  1  0  0  0  0
 17 20  1  0  0  0  0
 18 19  1  0  0  0  0
M  END
>  <InstanceId>
3P4V_PMX_A_300

>  <ChemCompId>
PMX

>  <PdbId>
3P4V

>  <ChainId>
A

>  <ResidueNumber>
300

>  <InsertionCode>


>  <Model>
1

>  <AltIds>


>  <MissingHeavyAtoms>
0

>  <ObservedFormula>
C14 N O6 Cl

>  <Name>
3-chloro-N-[(2E)-4-methoxy-4-oxobut-2-enoyl]-L-tyrosine

>  <SystematicName>
(2S)-3-(3-chloro-4-hydroxy-phenyl)-2-[[(E)-4-methoxy-4-oxo-but-2-enoyl]amino]propanoic acid

>  <Synonyms>
(+)-Xylariamide A

>  <Type>
NON-POLYMER

>  <Formula>
C14 H14 Cl N O6

>  <MolecularWeight>
327.717

>  <ModifiedDate>
2020-06-17

>  <Parent>


>  <OneLetterCode>


>  <SubcomponentList>


>  <AmbiguousFlag>
N

>  <InChI>
InChI=1S/C14H14ClNO6/c1-22-13(19)5-4-12(18)16-10(14(20)21)7-8-2-3-11(17)9(15)6-8/h2-6,10,17H,7H2,1H3,(H,16,18)(H,20,21)/b5-4+/t10-/m0/s1

>  <InChIKey>
KCOKHEIACSQLBQ-YEZKRMTDSA-N

>  <SMILES>
COC(=O)/C=C/C(=O)N[C@@H](Cc1ccc(c(c1)Cl)O)C(=O)O

$$$$
