2PQL_TSS_A_145
  RCSB PDB08012017453D
Coordinates from PDB:2PQL:A:145 Model:1 without hydrogens
 12 13  0  0  0  0            999 V2000
   13.6610  -23.7050    6.3550   N 0  0  0  0  0  0  0  0  0  0  0  0
   12.4920  -22.8570    6.1960   C 0  0  0  0  0  0  0  0  0  0  0  0
   12.9210  -21.3880    6.1270   C 0  0  0  0  0  0  0  0  0  0  0  0
   11.7170  -20.5530    5.7270   C 0  0  0  0  0  0  0  0  0  0  0  0
   10.3550  -20.8110    5.9710   C 0  0  0  0  0  0  0  0  0  0  0  0
    9.5630  -19.8310    5.4330   N 0  0  0  0  0  0  0  0  0  0  0  0
   10.4050  -18.9530    4.8570   C 0  0  0  0  0  0  0  0  0  0  0  0
   11.6800  -19.3700    5.0250   C 0  0  0  0  0  0  0  0  0  0  0  0
   10.0080  -17.8030    4.2130   C 0  0  0  0  0  0  0  0  0  0  0  0
   11.0590  -17.0130    3.7660   C 0  0  0  0  0  0  0  0  0  0  0  0
   12.3800  -17.4760    3.8130   C 0  0  0  0  0  0  0  0  0  0  0  0
   12.7260  -18.6170    4.5250   C 0  0  0  0  0  0  0  0  0  0  0  0
  1  2  1  0  0  0  0
  2  3  1  0  0  0  0
  3  4  1  0  0  0  0
  4  5  2  0  0  0  0
  4  8  1  0  0  0  0
  5  6  1  0  0  0  0
  6  7  1  0  0  0  0
  7  8  1  0  0  0  0
  7  9  2  0  0  0  0
  8 12  2  0  0  0  0
  9 10  1  0  0  0  0
 10 11  2  0  0  0  0
 11 12  1  0  0  0  0
M  END
>  <InstanceId>
2PQL_TSS_A_145

>  <ChemCompId>
TSS

>  <PdbId>
2PQL

>  <ChainId>
A

>  <ResidueNumber>
145

>  <InsertionCode>


>  <Model>
1

>  <AltIds>


>  <MissingHeavyAtoms>
0

>  <ObservedFormula>
C10 N2

>  <Name>
2-(1H-INDOL-3-YL)ETHANAMINE

>  <SystematicName>
2-(1H-indol-3-yl)ethanamine

>  <Synonyms>
TRYPTAMINE

>  <Type>
NON-POLYMER

>  <Formula>
C10 H12 N2

>  <MolecularWeight>
160.216

>  <ModifiedDate>
2011-06-04

>  <Parent>


>  <OneLetterCode>


>  <SubcomponentList>


>  <AmbiguousFlag>
N

>  <InChI>
InChI=1S/C10H12N2/c11-6-5-8-7-12-10-4-2-1-3-9(8)10/h1-4,7,12H,5-6,11H2

>  <InChIKey>
APJYDQYYACXCRM-UHFFFAOYSA-N

>  <SMILES>
c1ccc2c(c1)c(c[nH]2)CCN

$$$$
