1BHX_R56_F_1
  RCSB PDB08012014383D
Coordinates from PDB:1BHX:F:1 Model:1 without hydrogens
 31 33  0  0  0  0            999 V2000
   22.1690  -14.5920   25.7200   C 0  0  0  0  0  0  0  0  0  0  0  0
   22.1450  -15.9400   25.3790   C 0  0  0  0  0  0  0  0  0  0  0  0
   20.9710  -16.7030   25.6290   C 0  0  0  0  0  0  0  0  0  0  0  0
   19.8390  -16.0960   26.2060   C 0  0  0  0  0  0  0  0  0  0  0  0
   19.8790  -14.7540   26.5500   C 0  0  0  0  0  0  0  0  0  0  0  0
   21.0250  -14.0020   26.3100   C 0  0  0  0  0  0  0  0  0  0  0  0
   18.5670  -16.9220   26.4870   C 0  0  0  0  0  0  0  0  0  0  0  0
   17.8430  -17.3940   24.8500   S 0  0  0  0  0  0  0  0  0  0  0  0
   18.8810  -18.1230   24.0360   O 0  0  0  0  0  0  0  0  0  0  0  0
   16.5900  -17.9970   25.0660   O 0  0  0  0  0  0  0  0  0  0  0  0
   17.6520  -15.8550   24.1860   N 0  0  0  0  0  0  0  0  0  0  0  0
   18.0550  -15.5820   22.8040   C 0  0  0  0  0  0  0  0  0  0  0  0
   17.3480  -14.3450   22.3100   C 0  0  0  0  0  0  0  0  0  0  0  0
   16.3540  -13.9150   22.9140   O 0  0  0  0  0  0  0  0  0  0  0  0
   17.8480  -13.7720   21.1870   N 0  0  0  0  0  0  0  0  0  0  0  0
   19.0090  -14.3360   20.5480   C 0  0  0  0  0  0  0  0  0  0  0  0
   20.1060  -14.6080   21.5470   C 0  0  0  0  0  0  0  0  0  0  0  0
   19.5960  -15.4160   22.7580   C 0  0  0  0  0  0  0  0  0  0  0  0
   19.5770  -13.0300   19.5260   S 0  0  0  0  0  0  0  0  0  0  0  0
   17.9100  -12.3660   19.2870   C 0  0  0  0  0  0  0  0  0  0  0  0
   17.2240  -12.5620   20.5980   C 0  0  0  0  0  0  0  0  0  0  0  0
   15.6820  -12.7390   20.3790   C 0  0  0  0  0  0  0  0  0  0  0  0
   15.2270  -13.7840   19.9280   O 0  0  0  0  0  0  0  0  0  0  0  0
   14.8940  -11.6530   20.6710   N 0  0  0  0  0  0  0  0  0  0  0  0
   13.4600  -11.7790   20.4810   C 0  0  0  0  0  0  0  0  0  0  0  0
   12.7470  -10.6020   21.1150   C 0  0  0  0  0  0  0  0  0  0  0  0
   12.8600  -10.7240   22.6160   C 0  0  0  0  0  0  0  0  0  0  0  0
   12.0620  -11.8660   23.1110   N 0  0  0  0  0  0  0  0  0  0  0  0
   11.1950  -11.7100   24.0880   C 0  0  0  0  0  0  0  0  0  0  0  0
   11.0320  -10.5560   24.6390   N 0  0  0  0  0  0  0  0  0  0  0  0
   10.5070  -12.7250   24.5240   N 0  0  0  0  0  0  0  0  0  0  0  0
  1  2  2  0  0  0  0
  1  6  1  0  0  0  0
  2  3  1  0  0  0  0
  3  4  2  0  0  0  0
  4  5  1  0  0  0  0
  4  7  1  0  0  0  0
  5  6  2  0  0  0  0
  7  8  1  0  0  0  0
  8  9  2  0  0  0  0
  8 10  2  0  0  0  0
  8 11  1  0  0  0  0
 11 12  1  0  0  0  0
 12 13  1  0  0  0  0
 12 18  1  0  0  0  0
 13 14  2  0  0  0  0
 13 15  1  0  0  0  0
 15 16  1  0  0  0  0
 15 21  1  0  0  0  0
 16 17  1  0  0  0  0
 16 19  1  0  0  0  0
 17 18  1  0  0  0  0
 19 20  1  0  0  0  0
 20 21  1  0  0  0  0
 21 22  1  0  0  0  0
 22 23  2  0  0  0  0
 22 24  1  0  0  0  0
 24 25  1  0  0  0  0
 25 26  1  0  0  0  0
 26 27  1  0  0  0  0
 27 28  1  0  0  0  0
 28 29  1  0  0  0  0
 29 30  1  0  0  0  0
 29 31  2  0  0  0  0
M  END
>  <InstanceId>
1BHX_R56_F_1

>  <ChemCompId>
R56

>  <PdbId>
1BHX

>  <ChainId>
F

>  <ResidueNumber>
1

>  <InsertionCode>


>  <Model>
1

>  <AltIds>


>  <MissingHeavyAtoms>
0

>  <ObservedFormula>
C19 N6 O4 S2

>  <Name>
5-OXO-6-PHENYLMETHANESULFONYLAMINO-HEXAHYDRO-THIAZOLO[3,2-A]PYRIDINE-3-CARBOXYLIC ACID (3-GUANIDINO-PROPYL)-AMIDE

>  <SystematicName>
(3R,6R,8aS)-N-(3-carbamimidamidopropyl)-5-oxo-6-(phenylmethylsulfonylamino)-2,3,6,7,8,8a-hexahydro-[1,3]thiazolo[2,3-f]pyridine-3-carboxamide

>  <Synonyms>


>  <Type>
NON-POLYMER

>  <Formula>
C19 H28 N6 O4 S2

>  <MolecularWeight>
468.593

>  <ModifiedDate>
2011-06-04

>  <Parent>


>  <OneLetterCode>


>  <SubcomponentList>


>  <AmbiguousFlag>
N

>  <InChI>
InChI=1S/C19H28N6O4S2/c20-19(21)23-10-4-9-22-17(26)15-11-30-16-8-7-14(18(27)25(15)16)24-31(28,29)12-13-5-2-1-3-6-13/h1-3,5-6,14-16,24H,4,7-12H2,(H,22,26)(H4,20,21,23)/t14-,15+,16+/m1/s1

>  <InChIKey>
SOIIHESTBYNJRH-PMPSAXMXSA-N

>  <SMILES>
c1ccc(cc1)CS(=O)(=O)N[C@@H]2CC[C@H]3N(C2=O)[C@@H](CS3)C(=O)NCCCNC(=N)N

$$$$
