3T2W_BTN_A_600
  RCSB PDB08012020313D
Coordinates from PDB:3T2W:A:600 Model:1 without hydrogens
 16 17  0  0  0  0            999 V2000
   -6.4190  -26.4210   -3.9230   C 0  0  0  0  0  0  0  0  0  0  0  0
   -6.6420  -27.6440   -3.7260   O 0  0  0  0  0  0  0  0  0  0  0  0
   -6.9470  -25.8890   -4.9220   O 0  0  0  0  0  0  0  0  0  0  0  0
   -5.5200  -25.6040   -3.0020   C 0  0  0  0  0  0  0  0  0  0  0  0
   -5.5530  -25.9500   -1.5090   C 0  0  0  0  0  0  0  0  0  0  0  0
   -6.9470  -25.8560   -0.8700   C 0  0  0  0  0  0  0  0  0  0  0  0
   -6.9460  -26.2140    0.6170   C 0  0  0  0  0  0  0  0  0  0  0  0
   -8.3630  -25.9720    1.2150   C 0  0  0  0  0  0  0  0  0  0  0  0
   -8.8250  -24.3380    1.3950   S 0  0  0  0  0  0  0  0  0  0  0  0
  -10.3160  -24.9010    2.2590   C 0  0  0  0  0  0  0  0  0  0  0  0
   -9.8080  -25.9850    3.2360   C 0  0  0  0  0  0  0  0  0  0  0  0
   -9.2650  -25.4600    4.4710   N 0  0  0  0  0  0  0  0  0  0  0  0
   -7.9570  -25.7900    4.5540   C 0  0  0  0  0  0  0  0  0  0  0  0
   -7.1920  -25.4290    5.6400   O 0  0  0  0  0  0  0  0  0  0  0  0
   -7.5250  -26.4390    3.4910   N 0  0  0  0  0  0  0  0  0  0  0  0
   -8.6090  -26.6730    2.5540   C 0  0  0  0  0  0  0  0  0  0  0  0
  1  2  2  0  0  0  0
  1  3  1  0  0  0  0
  1  4  1  0  0  0  0
  4  5  1  0  0  0  0
  5  6  1  0  0  0  0
  6  7  1  0  0  0  0
  7  8  1  0  0  0  0
  8  9  1  0  0  0  0
  8 16  1  0  0  0  0
  9 10  1  0  0  0  0
 10 11  1  0  0  0  0
 11 12  1  0  0  0  0
 11 16  1  0  0  0  0
 12 13  1  0  0  0  0
 13 14  2  0  0  0  0
 13 15  1  0  0  0  0
 15 16  1  0  0  0  0
M  END
>  <InstanceId>
3T2W_BTN_A_600

>  <ChemCompId>
BTN

>  <PdbId>
3T2W

>  <ChainId>
A

>  <ResidueNumber>
600

>  <InsertionCode>


>  <Model>
1

>  <AltIds>


>  <MissingHeavyAtoms>
0

>  <ObservedFormula>
C10 N2 O3 S

>  <Name>
BIOTIN

>  <SystematicName>
5-[(3aS,4S,6aR)-2-oxidanylidene-1,3,3a,4,6,6a-hexahydrothieno[3,4-d]imidazol-4-yl]pentanoic acid

>  <Synonyms>


>  <Type>
NON-POLYMER

>  <Formula>
C10 H16 N2 O3 S

>  <MolecularWeight>
244.311

>  <ModifiedDate>
2014-04-29

>  <Parent>


>  <OneLetterCode>


>  <SubcomponentList>


>  <AmbiguousFlag>
N

>  <InChI>
InChI=1S/C10H16N2O3S/c13-8(14)4-2-1-3-7-9-6(5-16-7)11-10(15)12-9/h6-7,9H,1-5H2,(H,13,14)(H2,11,12,15)/t6-,7-,9-/m0/s1

>  <InChIKey>
YBJHBAHKTGYVGT-ZKWXMUAHSA-N

>  <SMILES>
C1[C@H]2[C@@H]([C@@H](S1)CCCCC(=O)O)NC(=O)N2

$$$$
