3BRA_AEF_A_394
  RCSB PDB08012018403D
Coordinates from PDB:3BRA:A:394 Model:1 without hydrogens
 10 10  0  0  0  0            999 V2000
  -18.4440   39.8950   92.6820   C 0  0  0  0  0  0  0  0  0  0  0  0
  -21.8120   41.5980   93.2790   C 0  0  0  0  0  0  0  0  0  0  0  0
  -21.9140   39.3190   94.1160   C 0  0  0  0  0  0  0  0  0  0  0  0
  -17.6160   39.3770   93.8710   C 0  0  0  0  0  0  0  0  0  0  0  0
  -22.5150   40.5600   93.8940   C 0  0  0  0  0  0  0  0  0  0  0  0
  -23.8170   40.7520   94.2940   O 0  0  0  0  0  0  0  0  0  0  0  0
  -20.5950   39.1180   93.7170   C 0  0  0  0  0  0  0  0  0  0  0  0
  -20.4890   41.3790   92.8820   C 0  0  0  0  0  0  0  0  0  0  0  0
  -19.8750   40.1400   93.1030   C 0  0  0  0  0  0  0  0  0  0  0  0
  -16.1700   39.2890   93.5490   N 0  0  0  0  0  0  0  0  0  0  0  0
  1  4  1  0  0  0  0
  1  9  1  0  0  0  0
  2  5  2  0  0  0  0
  2  8  1  0  0  0  0
  3  5  1  0  0  0  0
  3  7  2  0  0  0  0
  4 10  1  0  0  0  0
  5  6  1  0  0  0  0
  7  9  1  0  0  0  0
  8  9  2  0  0  0  0
M  END
>  <InstanceId>
3BRA_AEF_A_394

>  <ChemCompId>
AEF

>  <PdbId>
3BRA

>  <ChainId>
A

>  <ResidueNumber>
394

>  <InsertionCode>


>  <Model>
1

>  <AltIds>


>  <MissingHeavyAtoms>
0

>  <ObservedFormula>
C8 N O

>  <Name>
4-(2-aminoethyl)phenol

>  <SystematicName>
4-(2-aminoethyl)phenol

>  <Synonyms>


>  <Type>
NON-POLYMER

>  <Formula>
C8 H11 N O

>  <MolecularWeight>
137.179

>  <ModifiedDate>
2011-06-04

>  <Parent>


>  <OneLetterCode>


>  <SubcomponentList>


>  <AmbiguousFlag>
N

>  <InChI>
InChI=1S/C8H11NO/c9-6-5-7-1-3-8(10)4-2-7/h1-4,10H,5-6,9H2

>  <InChIKey>
DZGWFCGJZKJUFP-UHFFFAOYSA-N

>  <SMILES>
c1cc(ccc1CCN)O

$$$$
