4N8Q_FA0_A_601
  RCSB PDB08012022363D
Coordinates from PDB:4N8Q:A:601 Model:1 without hydrogens
 11 11  0  0  0  0            999 V2000
  -17.8390  -36.8710   17.5620   O 0  0  0  0  0  0  0  0  0  0  0  0
  -18.5290  -35.8240   17.5760   C 0  0  0  0  0  0  0  0  0  0  0  0
  -19.4930  -35.6370   18.3450   O 0  0  0  0  0  0  0  0  0  0  0  0
  -18.1980  -34.6730   16.6100   C 0  0  0  0  0  0  0  0  0  0  0  0
  -18.7740  -33.4110   16.8320   C 0  0  0  0  0  0  0  0  0  0  0  0
  -18.5000  -32.3410   15.9700   C 0  0  0  0  0  0  0  0  0  0  0  0
  -17.6540  -32.5390   14.8730   C 0  0  0  0  0  0  0  0  0  0  0  0
  -17.3580  -31.5180   14.0390   F 0  0  0  0  0  0  0  0  0  0  0  0
  -17.0840  -33.7920   14.6490   C 0  0  0  0  0  0  0  0  0  0  0  0
  -17.3450  -34.8590   15.5140   C 0  0  0  0  0  0  0  0  0  0  0  0
  -16.7790  -36.0450   15.2690   N 0  0  0  0  0  0  0  0  0  0  0  0
  8  7  1  0  0  0  0
  7  6  2  0  0  0  0
  7  9  1  0  0  0  0
  6  5  1  0  0  0  0
  9 10  2  0  0  0  0
  5  4  2  0  0  0  0
 10  4  1  0  0  0  0
 10 11  1  0  0  0  0
  4  2  1  0  0  0  0
  2  1  2  0  0  0  0
  2  3  1  0  0  0  0
M  END
>  <InstanceId>
4N8Q_FA0_A_601

>  <ChemCompId>
FA0

>  <PdbId>
4N8Q

>  <ChainId>
A

>  <ResidueNumber>
601

>  <InsertionCode>


>  <Model>
1

>  <AltIds>


>  <MissingHeavyAtoms>
0

>  <ObservedFormula>
C7 N O2 F

>  <Name>
2-amino-4-fluorobenzoic acid

>  <SystematicName>
2-azanyl-4-fluoranyl-benzoic acid

>  <Synonyms>


>  <Type>
NON-POLYMER

>  <Formula>
C7 H6 F N O2

>  <MolecularWeight>
155.126

>  <ModifiedDate>
2014-04-18

>  <Parent>


>  <OneLetterCode>


>  <SubcomponentList>


>  <AmbiguousFlag>
N

>  <InChI>
InChI=1S/C7H6FNO2/c8-4-1-2-5(7(10)11)6(9)3-4/h1-3H,9H2,(H,10,11)

>  <InChIKey>
LGPVTNAJFDUWLF-UHFFFAOYSA-N

>  <SMILES>
c1cc(c(cc1F)N)C(=O)O

$$$$
