3D83_GK6_A_401
  RCSB PDB08012018493D
Coordinates from PDB:3D83:A:401 Model:1 without hydrogens
 35 39  0  0  0  0            999 V2000
   46.2930   34.8180   30.9770   O 0  0  0  0  0  0  0  0  0  0  0  0
   46.0010   33.6850   30.5740   C 0  0  0  0  0  0  0  0  0  0  0  0
   46.7750   33.0420   29.6770   N 0  0  0  0  0  0  0  0  0  0  0  0
   47.9870   33.6210   29.0970   C 0  0  0  0  0  0  0  0  0  0  0  0
   49.0690   32.5610   28.8470   C 0  0  0  0  0  0  0  0  0  0  0  0
   50.4230   33.1260   29.2810   C 0  0  0  0  0  0  0  0  0  0  0  0
   49.7130   32.0970   30.1540   C 0  0  0  0  0  0  0  0  0  0  0  0
   44.7130   33.0050   31.0550   C 0  0  0  0  0  0  0  0  0  0  0  0
   44.3990   31.7120   30.6360   C 0  0  0  0  0  0  0  0  0  0  0  0
   43.2190   31.0710   31.0750   C 0  0  0  0  0  0  0  0  0  0  0  0
   43.8320   33.6670   31.9150   C 0  0  0  0  0  0  0  0  0  0  0  0
   42.6540   33.0280   32.3520   C 0  0  0  0  0  0  0  0  0  0  0  0
   42.3460   31.7220   31.9440   C 0  0  0  0  0  0  0  0  0  0  0  0
   41.1220   31.1280   32.3350   C 0  0  0  0  0  0  0  0  0  0  0  0
   39.9640   31.5260   31.6450   C 0  0  0  0  0  0  0  0  0  0  0  0
   40.0470   32.5660   30.5520   C 0  0  0  0  0  0  0  0  0  0  0  0
   40.9900   30.1500   33.3360   C 0  0  0  0  0  0  0  0  0  0  0  0
   39.7240   29.6130   33.6760   C 0  0  0  0  0  0  0  0  0  0  0  0
   38.5790   30.0370   32.9910   C 0  0  0  0  0  0  0  0  0  0  0  0
   38.7050   30.9950   31.9660   C 0  0  0  0  0  0  0  0  0  0  0  0
   39.5810   28.6850   34.6690   N 0  0  0  0  0  0  0  0  0  0  0  0
   40.2020   28.7100   35.8760   C 0  0  0  0  0  0  0  0  0  0  0  0
   41.1200   29.4700   36.1680   O 0  0  0  0  0  0  0  0  0  0  0  0
   39.7990   27.7130   36.9570   C 0  0  0  0  0  0  0  0  0  0  0  0
   40.1000   27.9850   38.3110   C 0  0  0  0  0  0  0  0  0  0  0  0
   39.7450   27.0410   39.2980   C 0  0  0  0  0  0  0  0  0  0  0  0
   39.1500   25.8840   38.9140   N 0  0  0  0  0  0  0  0  0  0  0  0
   38.8610   25.5970   37.6230   C 0  0  0  0  0  0  0  0  0  0  0  0
   39.1850   26.5000   36.6040   C 0  0  0  0  0  0  0  0  0  0  0  0
   40.0600   27.2770   40.6590   N 0  0  0  0  0  0  0  0  0  0  0  0
   39.9840   26.1460   41.5840   C 0  0  0  0  0  0  0  0  0  0  0  0
   39.8540   26.6370   43.0270   C 0  0  0  0  0  0  0  0  0  0  0  0
   40.7740   27.6980   43.2700   O 0  0  0  0  0  0  0  0  0  0  0  0
   40.3550   28.8400   42.5260   C 0  0  0  0  0  0  0  0  0  0  0  0
   40.5920   28.6050   41.0320   C 0  0  0  0  0  0  0  0  0  0  0  0
  1  2  2  0  0  0  0
  2  3  1  0  0  0  0
  2  8  1  0  0  0  0
  3  4  1  0  0  0  0
  4  5  1  0  0  0  0
  5  6  1  0  0  0  0
  5  7  1  0  0  0  0
  6  7  1  0  0  0  0
  8  9  2  0  0  0  0
  8 11  1  0  0  0  0
  9 10  1  0  0  0  0
 10 13  2  0  0  0  0
 11 12  2  0  0  0  0
 12 13  1  0  0  0  0
 13 14  1  0  0  0  0
 14 15  2  0  0  0  0
 14 17  1  0  0  0  0
 15 16  1  0  0  0  0
 15 20  1  0  0  0  0
 17 18  2  0  0  0  0
 18 19  1  0  0  0  0
 18 21  1  0  0  0  0
 19 20  2  0  0  0  0
 21 22  1  0  0  0  0
 22 23  2  0  0  0  0
 22 24  1  0  0  0  0
 24 25  2  0  0  0  0
 24 29  1  0  0  0  0
 25 26  1  0  0  0  0
 26 27  2  0  0  0  0
 26 30  1  0  0  0  0
 27 28  1  0  0  0  0
 28 29  2  0  0  0  0
 30 31  1  0  0  0  0
 30 35  1  0  0  0  0
 31 32  1  0  0  0  0
 32 33  1  0  0  0  0
 33 34  1  0  0  0  0
 34 35  1  0  0  0  0
M  END
>  <InstanceId>
3D83_GK6_A_401

>  <ChemCompId>
GK6

>  <PdbId>
3D83

>  <ChainId>
A

>  <ResidueNumber>
401

>  <InsertionCode>


>  <Model>
1

>  <AltIds>


>  <MissingHeavyAtoms>
0

>  <ObservedFormula>
C28 N4 O3

>  <Name>
N-{4'-[(cyclopropylmethyl)carbamoyl]-6-methylbiphenyl-3-yl}-2-morpholin-4-ylpyridine-4-carboxamide

>  <SystematicName>
N-[3-[4-(cyclopropylmethylcarbamoyl)phenyl]-4-methyl-phenyl]-2-morpholin-4-yl-pyridine-4-carboxamide

>  <Synonyms>
N-(4'-{[(cyclopropylmethyl)amino]carbonyl}-6-methyl-3-biphenylyl)-2-(4-morpholinyl)-4-pyridinecarboxamide

>  <Type>
NON-POLYMER

>  <Formula>
C28 H30 N4 O3

>  <MolecularWeight>
470.563

>  <ModifiedDate>
2020-06-17

>  <Parent>


>  <OneLetterCode>


>  <SubcomponentList>


>  <AmbiguousFlag>
N

>  <InChI>
InChI=1S/C28H30N4O3/c1-19-2-9-24(31-28(34)23-10-11-29-26(16-23)32-12-14-35-15-13-32)17-25(19)21-5-7-22(8-6-21)27(33)30-18-20-3-4-20/h2,5-11,16-17,20H,3-4,12-15,18H2,1H3,(H,30,33)(H,31,34)

>  <InChIKey>
BOQNSWFZUHQNRG-UHFFFAOYSA-N

>  <SMILES>
Cc1ccc(cc1c2ccc(cc2)C(=O)NCC3CC3)NC(=O)c4ccnc(c4)N5CCOCC5

$$$$
