1TTM_667_A_264
  RCSB PDB08012016023D
Coordinates from PDB:1TTM:A:264 Model:1 without hydrogens
 21 23  0  0  0  0            999 V2000
   20.5690   26.4520   19.2310   S 0  0  0  0  0  0  0  0  0  0  0  0
   21.3150   26.3360   20.6850   O 0  0  0  0  0  0  0  0  0  0  0  0
   19.0570   27.0450   19.3460   O 0  0  0  0  0  0  0  0  0  0  0  0
   21.2820   27.4270   18.5820   O 0  0  0  0  0  0  0  0  0  0  0  0
   20.7390   25.0690   18.3140   N 0  0  0  0  0  0  0  0  0  0  0  0
   21.7450   28.6190   19.0710   C 0  0  0  0  0  0  0  0  0  0  0  0
   23.0690   28.7160   19.4890   C 0  0  0  0  0  0  0  0  0  0  0  0
   23.5700   29.9610   19.9990   C 0  0  0  0  0  0  0  0  0  0  0  0
   22.6950   31.1240   20.0790   C 0  0  0  0  0  0  0  0  0  0  0  0
   21.2990   30.9990   19.6420   C 0  0  0  0  0  0  0  0  0  0  0  0
   20.8240   29.7470   19.1310   C 0  0  0  0  0  0  0  0  0  0  0  0
   23.2110   32.5060   20.6320   C 0  0  0  0  0  0  0  0  0  0  0  0
   22.3350   33.5890   20.7000   C 0  0  0  0  0  0  0  0  0  0  0  0
   20.8620   33.4090   20.2290   C 0  0  0  0  0  0  0  0  0  0  0  0
   24.7000   32.6450   21.0920   C 0  0  0  0  0  0  0  0  0  0  0  0
   22.7580   35.0200   21.2470   C 0  0  0  0  0  0  0  0  0  0  0  0
   20.0950   34.3550   20.2900   O 0  0  0  0  0  0  0  0  0  0  0  0
   20.2490   31.9870   19.6280   O 0  0  0  0  0  0  0  0  0  0  0  0
   23.7850   35.0700   22.4410   C 0  0  0  0  0  0  0  0  0  0  0  0
   23.9120   33.7640   23.2780   C 0  0  0  0  0  0  0  0  0  0  0  0
   24.8480   32.7150   22.6220   C 0  0  0  0  0  0  0  0  0  0  0  0
  1  2  2  0  0  0  0
  1  3  2  0  0  0  0
  1  4  1  0  0  0  0
  1  5  1  0  0  0  0
  4  6  1  0  0  0  0
  6  7  2  0  0  0  0
  6 11  1  0  0  0  0
  7  8  1  0  0  0  0
  8  9  2  0  0  0  0
  9 10  1  0  0  0  0
  9 12  1  0  0  0  0
 10 11  2  0  0  0  0
 10 18  1  0  0  0  0
 12 13  2  0  0  0  0
 12 15  1  0  0  0  0
 13 14  1  0  0  0  0
 13 16  1  0  0  0  0
 14 17  2  0  0  0  0
 14 18  1  0  0  0  0
 15 21  1  0  0  0  0
 16 19  1  0  0  0  0
 19 20  1  0  0  0  0
 20 21  1  0  0  0  0
M  END
>  <InstanceId>
1TTM_667_A_264

>  <ChemCompId>
667

>  <PdbId>
1TTM

>  <ChainId>
A

>  <ResidueNumber>
264

>  <InsertionCode>


>  <Model>
1

>  <AltIds>


>  <MissingHeavyAtoms>
0

>  <ObservedFormula>
C14 N O5 S

>  <Name>
6-OXO-8,9,10,11-TETRAHYDRO-7H-CYCLOHEPTA[C][1]BENZOPYRAN-3-O-SULFAMATE

>  <SystematicName>


>  <Synonyms>


>  <Type>
NON-POLYMER

>  <Formula>
C14 H15 N O5 S

>  <MolecularWeight>
309.338

>  <ModifiedDate>
2011-06-04

>  <Parent>


>  <OneLetterCode>


>  <SubcomponentList>


>  <AmbiguousFlag>
N

>  <InChI>
InChI=1S/C14H15NO5S/c15-21(17,18)20-9-6-7-11-10-4-2-1-3-5-12(10)14(16)19-13(11)8-9/h6-8H,1-5H2,(H2,15,17,18)

>  <InChIKey>
DSLPMJSGSBLWRE-UHFFFAOYSA-N

>  <SMILES>
c1cc2c(cc1OS(=O)(=O)N)OC(=O)C3=C2CCCCC3

$$$$
