2CEN_4AH_B_1200
  RCSB PDB08012016463D
Coordinates from PDB:2CEN:B:1200 Model:1 without hydrogens
 50 54  0  0  0  0            999 V2000
   14.3070   22.9110    5.6430   C 0  0  0  0  0  0  0  0  0  0  0  0
   14.5790   21.3770    5.3860   C 0  0  0  0  0  0  0  0  0  0  0  0
   13.6330   20.5620    5.4030   O 0  0  0  0  0  0  0  0  0  0  0  0
   15.8330   20.9260    5.1890   N 0  0  0  0  0  0  0  0  0  0  0  0
   16.1290   19.4960    4.9900   C 0  0  0  0  0  0  0  0  0  0  0  0
   16.0890   18.9950    3.5740   C 0  0  0  0  0  0  0  0  0  0  0  0
   15.2500   19.4110    2.4890   C 0  0  0  0  0  0  0  0  0  0  0  0
   15.4250   18.7590    1.2180   C 0  0  0  0  0  0  0  0  0  0  0  0
   16.4120   17.7250    1.0620   C 0  0  0  0  0  0  0  0  0  0  0  0
   17.2390   17.3220    2.1630   C 0  0  0  0  0  0  0  0  0  0  0  0
   17.0540   17.9780    3.4120   C 0  0  0  0  0  0  0  0  0  0  0  0
   17.7990   17.7320    4.7040   C 0  0  0  0  0  0  0  0  0  0  0  0
   17.5230   19.0220    5.5170   C 0  0  0  0  0  0  0  0  0  0  0  0
   18.5730   19.9140    5.1680   O 0  0  0  0  0  0  0  0  0  0  0  0
   14.1110   23.1820    7.1760   C 0  0  0  0  0  0  0  0  0  0  0  0
   14.9730   22.3470    8.1180   C 0  0  0  0  0  0  0  0  0  0  0  0
   14.3750   21.2800    8.8770   C 0  0  0  0  0  0  0  0  0  0  0  0
   15.1730   20.4770    9.7450   C 0  0  0  0  0  0  0  0  0  0  0  0
   16.5770   20.7350    9.8590   C 0  0  0  0  0  0  0  0  0  0  0  0
   17.1780   21.7980    9.1060   C 0  0  0  0  0  0  0  0  0  0  0  0
   16.3810   22.6040    8.2360   C 0  0  0  0  0  0  0  0  0  0  0  0
   15.4120   23.7170    5.2220   O 0  0  0  0  0  0  0  0  0  0  0  0
   13.0310   22.9480    4.7450   C 0  0  0  0  0  0  0  0  0  0  0  0
   12.0780   23.9550    4.3850   N 0  0  0  0  0  0  0  0  0  0  0  0
   11.4140   24.7110    5.3210   N 0  0  0  0  0  0  0  0  0  0  0  0
   11.5480   23.4280    3.1080   C 0  0  0  0  0  0  0  0  0  0  0  0
   10.5400   24.4360    6.3090   C 0  0  0  0  0  0  0  0  0  0  0  0
   10.3620   23.2950    6.7660   O 0  0  0  0  0  0  0  0  0  0  0  0
    9.7620   25.6600    6.8290   C 0  0  0  0  0  0  0  0  0  0  0  0
    9.6900   25.9050    8.3760   C 0  0  0  0  0  0  0  0  0  0  0  0
    8.9260   27.2100    8.7310   C 0  0  0  0  0  0  0  0  0  0  0  0
   11.0770   26.0020    9.0310   C 0  0  0  0  0  0  0  0  0  0  0  0
    8.3920   25.5860    6.2930   N 0  0  0  0  0  0  0  0  0  0  0  0
    7.8210   26.4840    5.4740   C 0  0  0  0  0  0  0  0  0  0  0  0
    8.4670   27.4840    5.1070   O 0  0  0  0  0  0  0  0  0  0  0  0
    6.5440   26.2540    5.0890   O 0  0  0  0  0  0  0  0  0  0  0  0
   10.0340   23.4700    2.9970   C 0  0  0  0  0  0  0  0  0  0  0  0
    9.4220   24.4510    2.1580   C 0  0  0  0  0  0  0  0  0  0  0  0
    7.9990   24.5180    2.0510   C 0  0  0  0  0  0  0  0  0  0  0  0
    7.1660   23.6030    2.7910   C 0  0  0  0  0  0  0  0  0  0  0  0
    9.2150   22.5500    3.7300   C 0  0  0  0  0  0  0  0  0  0  0  0
    7.7910   22.6170    3.6320   C 0  0  0  0  0  0  0  0  0  0  0  0
    5.8550   27.1580    4.2320   C 0  0  0  0  0  0  0  0  0  0  0  0
    8.9130   24.7670    9.0460   C 0  0  0  0  0  0  0  0  0  0  0  0
    3.4210   22.8550    3.3400   C 0  0  0  0  0  0  0  0  0  0  0  0
    4.8410   22.7860    3.4320   C 0  0  0  0  0  0  0  0  0  0  0  0
    5.6770   23.6820    2.6840   C 0  0  0  0  0  0  0  0  0  0  0  0
    5.0560   24.6540    1.8370   C 0  0  0  0  0  0  0  0  0  0  0  0
    3.6370   24.7180    1.7470   N 0  0  0  0  0  0  0  0  0  0  0  0
    2.8160   23.8240    2.4950   C 0  0  0  0  0  0  0  0  0  0  0  0
  1  2  1  0  0  0  0
  1 15  1  0  0  0  0
  1 22  1  0  0  0  0
  1 23  1  0  0  0  0
  2  3  2  0  0  0  0
  2  4  1  0  0  0  0
  4  5  1  0  0  0  0
  5  6  1  0  0  0  0
  5 13  1  0  0  0  0
  6  7  2  0  0  0  0
  6 11  1  0  0  0  0
  7  8  1  0  0  0  0
  8  9  2  0  0  0  0
  9 10  1  0  0  0  0
 10 11  2  0  0  0  0
 11 12  1  0  0  0  0
 12 13  1  0  0  0  0
 13 14  1  0  0  0  0
 15 16  1  0  0  0  0
 16 17  2  0  0  0  0
 16 21  1  0  0  0  0
 17 18  1  0  0  0  0
 18 19  2  0  0  0  0
 19 20  1  0  0  0  0
 20 21  2  0  0  0  0
 23 24  1  0  0  0  0
 24 25  1  0  0  0  0
 24 26  1  0  0  0  0
 25 27  1  0  0  0  0
 26 37  1  0  0  0  0
 27 28  2  0  0  0  0
 27 29  1  0  0  0  0
 29 30  1  0  0  0  0
 29 33  1  0  0  0  0
 30 31  1  0  0  0  0
 30 32  1  0  0  0  0
 30 44  1  0  0  0  0
 33 34  1  0  0  0  0
 34 35  2  0  0  0  0
 34 36  1  0  0  0  0
 36 43  1  0  0  0  0
 37 38  2  0  0  0  0
 37 41  1  0  0  0  0
 38 39  1  0  0  0  0
 39 40  2  0  0  0  0
 40 42  1  0  0  0  0
 40 47  1  0  0  0  0
 41 42  2  0  0  0  0
 45 46  1  0  0  0  0
 45 50  2  0  0  0  0
 46 47  2  0  0  0  0
 47 48  1  0  0  0  0
 48 49  2  0  0  0  0
 49 50  1  0  0  0  0
M  END
>  <InstanceId>
2CEN_4AH_B_1200

>  <ChemCompId>
4AH

>  <PdbId>
2CEN

>  <ChainId>
B

>  <ResidueNumber>
1200

>  <InsertionCode>


>  <Model>
1

>  <AltIds>


>  <MissingHeavyAtoms>
0

>  <ObservedFormula>
C39 N5 O6

>  <Name>
{(1S)-1-[N'-[(2S)-2-HYDROXY-2-((1S,2R)-2-HYDROXY-INDAN-1-YLCARBAMOYL)-3-PHENYL-PROPYL]-N'-[4-(PYRIDINE-2-YL)-BENZYL]-HYDRAZINOCARBONYL]-2,2-DIMETHYL-PROPYL}-CARBAMIC ACID METHYL ESTER

>  <SystematicName>
methyl N-[(2S)-1-[2-[(2S)-2-hydroxy-3-[[(1S,2R)-2-hydroxy-2,3-dihydro-1H-inden-1-yl]amino]-3-oxo-2-(phenylmethyl)propyl]-2-[(4-pyridin-3-ylphenyl)methyl]hydrazinyl]-3,3-dimethyl-1-oxo-butan-2-yl]carbamate

>  <Synonyms>


>  <Type>
NON-POLYMER

>  <Formula>
C39 H45 N5 O6

>  <MolecularWeight>
679.804

>  <ModifiedDate>
2011-06-04

>  <Parent>


>  <OneLetterCode>


>  <SubcomponentList>


>  <AmbiguousFlag>
N

>  <InChI>
InChI=1S/C39H45N5O6/c1-38(2,3)34(42-37(48)50-4)35(46)43-44(24-27-16-18-28(19-17-27)30-14-10-20-40-23-30)25-39(49,22-26-11-6-5-7-12-26)36(47)41-33-31-15-9-8-13-29(31)21-32(33)45/h5-20,23,32-34,45,49H,21-22,24-25H2,1-4H3,(H,41,47)(H,42,48)(H,43,46)/t32-,33+,34-,39+/m1/s1

>  <InChIKey>
QPEXKJZILBODNL-NGXTUNLOSA-N

>  <SMILES>
CC(C)(C)[C@@H](C(=O)N[N@](Cc1ccc(cc1)c2cccnc2)C[C@@](Cc3ccccc3)(C(=O)N[C@H]4c5ccccc5C[C@H]4O)O)NC(=O)OC

$$$$
