3QDD_94M_A_999
  RCSB PDB08012020143D
Coordinates from PDB:3QDD:A:999 Model:1 without hydrogens
 22 24  0  0  0  0            999 V2000
    1.5940   34.8750   25.7580   N 0  0  0  0  0  0  0  0  0  0  0  0
    1.3230   34.2990   24.6010   C 0  0  0  0  0  0  0  0  0  0  0  0
    2.3430   33.8000   23.9490   N 0  0  0  0  0  0  0  0  0  0  0  0
    0.0960   34.2200   24.0790   N 0  0  0  0  0  0  0  0  0  0  0  0
   -0.9480   34.7420   24.7590   C 0  0  0  0  0  0  0  0  0  0  0  0
   -0.7210   35.3390   26.0190   C 0  0  0  0  0  0  0  0  0  0  0  0
    0.5780   35.3890   26.4700   C 0  0  0  0  0  0  0  0  0  0  0  0
    0.9770   36.1350   28.0080  Cl 0  0  0  0  0  0  0  0  0  0  0  0
   -1.9240   35.8120   26.4480   N 0  0  0  0  0  0  0  0  0  0  0  0
   -2.8620   35.4420   25.5740   C 0  0  0  0  0  0  0  0  0  0  0  0
   -2.2570   34.8210   24.5490   N 0  0  0  0  0  0  0  0  0  0  0  0
   -4.5440   29.4950   26.3880   C 0  0  0  0  0  0  0  0  0  0  0  0
   -7.1600   30.5510   24.7860   C 0  0  0  0  0  0  0  0  0  0  0  0
   -2.2590   31.3860   24.3800   C 0  0  0  0  0  0  0  0  0  0  0  0
   -6.2670   32.7750   23.9830   C 0  0  0  0  0  0  0  0  0  0  0  0
   -2.9480   34.2740   23.3670   C 0  0  0  0  0  0  0  0  0  0  0  0
   -5.2630   33.6260   23.6720   N 0  0  0  0  0  0  0  0  0  0  0  0
   -4.4450   29.7890   25.0020   O 0  0  0  0  0  0  0  0  0  0  0  0
   -6.0190   31.4930   24.4680   C 0  0  0  0  0  0  0  0  0  0  0  0
   -3.6860   31.9250   24.2390   C 0  0  0  0  0  0  0  0  0  0  0  0
   -3.9870   33.2430   23.7850   C 0  0  0  0  0  0  0  0  0  0  0  0
   -4.7130   31.0540   24.5460   C 0  0  0  0  0  0  0  0  0  0  0  0
  1  2  2  0  0  0  0
  1  7  1  0  0  0  0
  2  3  1  0  0  0  0
  2  4  1  0  0  0  0
  4  5  2  0  0  0  0
  5  6  1  0  0  0  0
  5 11  1  0  0  0  0
  6  7  2  0  0  0  0
  6  9  1  0  0  0  0
  7  8  1  0  0  0  0
  9 10  2  0  0  0  0
 10 11  1  0  0  0  0
 11 16  1  0  0  0  0
 12 18  1  0  0  0  0
 13 19  1  0  0  0  0
 14 20  1  0  0  0  0
 15 17  2  0  0  0  0
 15 19  1  0  0  0  0
 16 21  1  0  0  0  0
 17 21  1  0  0  0  0
 18 22  1  0  0  0  0
 19 22  2  0  0  0  0
 20 21  2  0  0  0  0
 20 22  1  0  0  0  0
M  END
>  <InstanceId>
3QDD_94M_A_999

>  <ChemCompId>
94M

>  <PdbId>
3QDD

>  <ChainId>
A

>  <ResidueNumber>
999

>  <InsertionCode>


>  <Model>
1

>  <AltIds>


>  <MissingHeavyAtoms>
0

>  <ObservedFormula>
C14 N6 O Cl

>  <Name>
6-chloro-9-[(4-methoxy-3,5-dimethylpyridin-2-yl)methyl]-9H-purin-2-amine

>  <SystematicName>
6-chloro-9-[(4-methoxy-3,5-dimethyl-pyridin-2-yl)methyl]purin-2-amine

>  <Synonyms>


>  <Type>
NON-POLYMER

>  <Formula>
C14 H15 Cl N6 O

>  <MolecularWeight>
318.762

>  <ModifiedDate>
2011-06-04

>  <Parent>


>  <OneLetterCode>


>  <SubcomponentList>


>  <AmbiguousFlag>
N

>  <InChI>
InChI=1S/C14H15ClN6O/c1-7-4-17-9(8(2)11(7)22-3)5-21-6-18-10-12(15)19-14(16)20-13(10)21/h4,6H,5H2,1-3H3,(H2,16,19,20)

>  <InChIKey>
QULDDKSCVCJTPV-UHFFFAOYSA-N

>  <SMILES>
Cc1cnc(c(c1OC)C)Cn2cnc3c2nc(nc3Cl)N

$$$$
