2VFK_AMP_A_1293
  RCSB PDB08012018013D
Coordinates from PDB:2VFK:A:1293 Model:1 without hydrogens
 23 25  0  0  0  0            999 V2000
  -13.5760  -10.1950   -1.3180   P 0  0  0  0  0  0  0  0  0  0  0  0
  -14.8530   -9.9940   -0.5190   O 0  0  0  0  0  0  0  0  0  0  0  0
  -13.2630  -11.6410   -1.5200   O 0  0  0  0  0  0  0  0  0  0  0  0
  -13.5290   -9.3330   -2.5620   O 0  0  0  0  0  0  0  0  0  0  0  0
  -12.3660   -9.6170   -0.4330   O 0  0  0  0  0  0  0  0  0  0  0  0
  -12.1580  -10.2140    0.8530   C 0  0  0  0  0  0  0  0  0  0  0  0
  -11.8060   -9.1190    1.8580   C 0  0  0  0  0  0  0  0  0  0  0  0
  -10.6940   -8.3320    1.4180   O 0  0  0  0  0  0  0  0  0  0  0  0
  -12.9920   -8.1720    1.9730   C 0  0  0  0  0  0  0  0  0  0  0  0
  -13.6620   -8.3130    3.2030   O 0  0  0  0  0  0  0  0  0  0  0  0
  -12.4260   -6.8050    1.8620   C 0  0  0  0  0  0  0  0  0  0  0  0
  -12.9140   -6.0170    2.9430   O 0  0  0  0  0  0  0  0  0  0  0  0
  -10.9310   -7.0050    1.9210   C 0  0  0  0  0  0  0  0  0  0  0  0
  -10.3690   -6.0020    1.0030   N 0  0  0  0  0  0  0  0  0  0  0  0
  -10.7970   -5.7370   -0.2630   C 0  0  0  0  0  0  0  0  0  0  0  0
  -10.0630   -4.7730   -0.8440   N 0  0  0  0  0  0  0  0  0  0  0  0
   -9.1230   -4.4250    0.0670   C 0  0  0  0  0  0  0  0  0  0  0  0
   -8.0360   -3.4320    0.0760   C 0  0  0  0  0  0  0  0  0  0  0  0
   -7.8310   -2.6560   -1.0210   N 0  0  0  0  0  0  0  0  0  0  0  0
   -7.2840   -3.3680    1.2220   N 0  0  0  0  0  0  0  0  0  0  0  0
   -7.5410   -4.1320    2.3060   C 0  0  0  0  0  0  0  0  0  0  0  0
   -8.5150   -5.0570    2.3730   N 0  0  0  0  0  0  0  0  0  0  0  0
   -9.3290   -5.2280    1.2760   C 0  0  0  0  0  0  0  0  0  0  0  0
  1  2  2  0  0  0  0
  1  3  1  0  0  0  0
  1  4  1  0  0  0  0
  1  5  1  0  0  0  0
  5  6  1  0  0  0  0
  6  7  1  0  0  0  0
  7  8  1  0  0  0  0
  7  9  1  0  0  0  0
  8 13  1  0  0  0  0
  9 10  1  0  0  0  0
  9 11  1  0  0  0  0
 11 12  1  0  0  0  0
 11 13  1  0  0  0  0
 13 14  1  0  0  0  0
 14 15  1  0  0  0  0
 14 23  1  0  0  0  0
 15 16  2  0  0  0  0
 16 17  1  0  0  0  0
 17 18  1  0  0  0  0
 17 23  2  0  0  0  0
 18 19  1  0  0  0  0
 18 20  2  0  0  0  0
 20 21  1  0  0  0  0
 21 22  2  0  0  0  0
 22 23  1  0  0  0  0
M  END
>  <InstanceId>
2VFK_AMP_A_1293

>  <ChemCompId>
AMP

>  <PdbId>
2VFK

>  <ChainId>
A

>  <ResidueNumber>
1293

>  <InsertionCode>


>  <Model>
1

>  <AltIds>


>  <MissingHeavyAtoms>
0

>  <ObservedFormula>
C10 N5 O7 P

>  <Name>
ADENOSINE MONOPHOSPHATE

>  <SystematicName>
[(2R,3S,4R,5R)-5-(6-aminopurin-9-yl)-3,4-bis(oxidanyl)oxolan-2-yl]methyl dihydrogen phosphate

>  <Synonyms>


>  <Type>
NON-POLYMER

>  <Formula>
C10 H14 N5 O7 P

>  <MolecularWeight>
347.221

>  <ModifiedDate>
2011-12-08

>  <Parent>


>  <OneLetterCode>


>  <SubcomponentList>


>  <AmbiguousFlag>
N

>  <InChI>
InChI=1S/C10H14N5O7P/c11-8-5-9(13-2-12-8)15(3-14-5)10-7(17)6(16)4(22-10)1-21-23(18,19)20/h2-4,6-7,10,16-17H,1H2,(H2,11,12,13)(H2,18,19,20)/t4-,6-,7-,10-/m1/s1

>  <InChIKey>
UDMBCSSLTHHNCD-KQYNXXCUSA-N

>  <SMILES>
c1nc(c2c(n1)n(cn2)[C@H]3[C@@H]([C@@H]([C@H](O3)COP(=O)(O)O)O)O)N

$$$$
