4XU3_44R_A_301
  RCSB PDB08022000233D
Coordinates from PDB:4XU3:A:301 Model:1 without hydrogens
 34 37  0  0  0  0            999 V2000
   -7.9831   -0.8357   11.9434   C 0  0  0  0  0  0  0  0  0  0  0  0
   -5.7146   -0.4179   11.5862   C 0  0  0  0  0  0  0  0  0  0  0  0
   -5.4688   -0.6168   12.9333   C 0  0  0  0  0  0  0  0  0  0  0  0
   -6.5282   -0.9257   13.7733   C 0  0  0  0  0  0  0  0  0  0  0  0
   -7.7710   -1.0272   13.2538   N 0  0  0  0  0  0  0  0  0  0  0  0
   -6.9773   -0.5362   11.1111   N 0  0  0  0  0  0  0  0  0  0  0  0
   -3.5890   -0.1565   11.9390   C 0  0  0  0  0  0  0  0  0  0  0  0
   -2.1730  -10.0382   13.8602   C 0  0  0  0  0  0  0  0  0  0  0  0
   -0.9674   -9.3288   13.4759   N 0  0  0  0  0  0  0  0  0  0  0  0
   -0.0140   -9.4500   14.3956   C 0  0  0  0  0  0  0  0  0  0  0  0
    1.0765   -8.9029   14.3531   O 0  0  0  0  0  0  0  0  0  0  0  0
   -0.4155  -10.2374   15.3834   N 0  0  0  0  0  0  0  0  0  0  0  0
   -1.8199  -10.5518   15.2573   C 0  0  0  0  0  0  0  0  0  0  0  0
   -2.5621   -9.8077   16.3555   C 0  0  0  0  0  0  0  0  0  0  0  0
   -3.5922   -8.6433   15.5472   S 0  0  0  0  0  0  0  0  0  0  0  0
   -3.3919   -9.1213   13.8702   C 0  0  0  0  0  0  0  0  0  0  0  0
   -3.2121   -7.9113   12.9660   C 0  0  0  0  0  0  0  0  0  0  0  0
   -3.5583   -8.2948   11.5329   C 0  0  0  0  0  0  0  0  0  0  0  0
   -3.6825   -7.0670   10.6418   C 0  0  0  0  0  0  0  0  0  0  0  0
   -4.0792   -7.4757    9.2297   C 0  0  0  0  0  0  0  0  0  0  0  0
   -4.4586   -6.2533    8.4301   C 0  0  0  0  0  0  0  0  0  0  0  0
   -5.5416   -5.7233    8.6109   O 0  0  0  0  0  0  0  0  0  0  0  0
   -3.5599   -5.8216    7.5462   N 0  0  0  0  0  0  0  0  0  0  0  0
   -3.9536   -4.7650    6.4070   S 0  0  0  0  0  0  0  0  0  0  0  0
   -5.3134   -4.9668    5.9901   O 0  0  0  0  0  0  0  0  0  0  0  0
   -3.0944   -4.9339    5.2688   O 0  0  0  0  0  0  0  0  0  0  0  0
   -3.7764   -3.2686    6.9389   N 0  0  0  0  0  0  0  0  0  0  0  0
   -3.0677   -3.0035    8.1728   C 0  0  0  0  0  0  0  0  0  0  0  0
   -3.0372   -1.5125    8.4787   C 0  0  0  0  0  0  0  0  0  0  0  0
   -4.3342   -1.1330    8.9250   O 0  0  0  0  0  0  0  0  0  0  0  0
   -4.3460    0.1306    9.5825   C 0  0  0  0  0  0  0  0  0  0  0  0
   -4.5469   -0.1430   11.0020   N 0  0  0  0  0  0  0  0  0  0  0  0
   -4.1469   -0.4489   13.1343   N 0  0  0  0  0  0  0  0  0  0  0  0
   -6.3172   -1.1233   15.0976   N 0  0  0  0  0  0  0  0  0  0  0  0
 26 24  2  0  0  0  0
 25 24  2  0  0  0  0
 24 27  1  0  0  0  0
 24 23  1  0  0  0  0
 27 28  1  0  0  0  0
 23 21  1  0  0  0  0
 28 29  1  0  0  0  0
 21 22  2  0  0  0  0
 21 20  1  0  0  0  0
 29 30  1  0  0  0  0
 30 31  1  0  0  0  0
 20 19  1  0  0  0  0
 31 32  1  0  0  0  0
 19 18  1  0  0  0  0
 32  2  1  0  0  0  0
 32  7  1  0  0  0  0
  6  2  2  0  0  0  0
  6  1  1  0  0  0  0
 18 17  1  0  0  0  0
  2  3  1  0  0  0  0
  7 33  2  0  0  0  0
  1  5  2  0  0  0  0
  3 33  1  0  0  0  0
  3  4  2  0  0  0  0
 17 16  1  0  0  0  0
  5  4  1  0  0  0  0
  9  8  1  0  0  0  0
  9 10  1  0  0  0  0
  4 34  1  0  0  0  0
  8 16  1  0  0  0  0
  8 13  1  0  0  0  0
 16 15  1  0  0  0  0
 11 10  2  0  0  0  0
 10 12  1  0  0  0  0
 13 12  1  0  0  0  0
 13 14  1  0  0  0  0
 15 14  1  0  0  0  0
M  END
>  <InstanceId>
4XU3_44R_A_301

>  <ChemCompId>
44R

>  <PdbId>
4XU3

>  <ChainId>
A

>  <ResidueNumber>
301

>  <InsertionCode>


>  <Model>
1

>  <AltIds>


>  <MissingHeavyAtoms>
0

>  <ObservedFormula>
C18 N9 O5 S2

>  <Name>
N-({2-[(6-amino-9H-purin-9-yl)methoxy]ethyl}sulfamoyl)-5-[(3aS,4S,6aR)-2-oxohexahydro-1H-thieno[3,4-d]imidazol-4-yl]pentanamide

>  <SystematicName>
5-[(3aS,4S,6aR)-2-oxidanylidene-1,3,3a,4,6,6a-hexahydrothieno[3,4-d]imidazol-4-yl]-N-[2-[(6-aminopurin-9-yl)methoxy]ethylsulfamoyl]pentanamide

>  <Synonyms>


>  <Type>
NON-POLYMER

>  <Formula>
C18 H27 N9 O5 S2

>  <MolecularWeight>
513.594

>  <ModifiedDate>
2015-08-28

>  <Parent>


>  <OneLetterCode>


>  <SubcomponentList>


>  <AmbiguousFlag>
N

>  <InChI>
InChI=1S/C18H27N9O5S2/c19-16-15-17(21-8-20-16)27(9-22-15)10-32-6-5-23-34(30,31)26-13(28)4-2-1-3-12-14-11(7-33-12)24-18(29)25-14/h8-9,11-12,14,23H,1-7,10H2,(H,26,28)(H2,19,20,21)(H2,24,25,29)/t11-,12-,14-/m0/s1

>  <InChIKey>
HEOBKFIXAMLSMW-OBJOEFQTSA-N

>  <SMILES>
c1nc(c2c(n1)n(cn2)COCCNS(=O)(=O)NC(=O)CCCC[C@H]3[C@@H]4[C@H](CS3)NC(=O)N4)N

$$$$
