5I7X_67B_A_201
  RCSB PDB08022001413D
Coordinates from PDB:5I7X:A:201 Model:1 without hydrogens
 22 24  0  0  0  0            999 V2000
  -12.8050    6.0710    9.3220   C 0  0  0  0  0  0  0  0  0  0  0  0
  -13.2150    8.5040    9.3040   C 0  0  0  0  0  0  0  0  0  0  0  0
  -12.6230   10.7870    9.8690   C 0  0  0  0  0  0  0  0  0  0  0  0
  -13.2060    4.7740    9.5630   C 0  0  0  0  0  0  0  0  0  0  0  0
  -14.9540    6.8870   10.0960   C 0  0  0  0  0  0  0  0  0  0  0  0
  -16.7030    5.2480   10.8580   C 0  0  0  0  0  0  0  0  0  0  0  0
  -14.4720    4.5180   10.0620   C 0  0  0  0  0  0  0  0  0  0  0  0
  -17.4920    4.4180   10.1210   C 0  0  0  0  0  0  0  0  0  0  0  0
  -19.5080    3.1570    9.6780   C 0  0  0  0  0  0  0  0  0  0  0  0
  -20.4300    4.1360   11.9900   O 0  0  0  0  0  0  0  0  0  0  0  0
  -19.2920    4.5040   11.6760   C 0  0  0  0  0  0  0  0  0  0  0  0
  -18.7390    4.0650   10.5340   N 0  0  0  0  0  0  0  0  0  0  0  0
  -18.5510    5.3850   12.4880   C 0  0  0  0  0  0  0  0  0  0  0  0
  -18.8400    6.0080   13.6790   N 0  0  0  0  0  0  0  0  0  0  0  0
  -17.7660    6.7730   14.0380   C 0  0  0  0  0  0  0  0  0  0  0  0
  -16.7880    6.6600   13.1120   C 0  0  0  0  0  0  0  0  0  0  0  0
  -17.2590    5.7850   12.1090   C 0  0  0  0  0  0  0  0  0  0  0  0
  -15.3500    5.5720   10.3460   C 0  0  0  0  0  0  0  0  0  0  0  0
  -13.6670    7.1310    9.6030   C 0  0  0  0  0  0  0  0  0  0  0  0
  -12.9660    8.7730    8.1410   O 0  0  0  0  0  0  0  0  0  0  0  0
  -13.0760    9.4490   10.2560   N 0  0  0  0  0  0  0  0  0  0  0  0
  -13.3440    9.1830   11.6700   C 0  0  0  0  0  0  0  0  0  0  0  0
 15 14  1  0  0  0  0
 15 16  2  0  0  0  0
 14 13  1  0  0  0  0
 16 17  1  0  0  0  0
 13 17  2  0  0  0  0
 13 11  1  0  0  0  0
 17  6  1  0  0  0  0
 10 11  2  0  0  0  0
 11 12  1  0  0  0  0
  7  4  2  0  0  0  0
  7 18  1  0  0  0  0
  4  1  1  0  0  0  0
  6 18  1  0  0  0  0
  6  8  2  0  0  0  0
 18  5  2  0  0  0  0
 12  8  1  0  0  0  0
 12  9  1  0  0  0  0
  1 19  2  0  0  0  0
  5 19  1  0  0  0  0
 19  2  1  0  0  0  0
  2 20  2  0  0  0  0
  2 21  1  0  0  0  0
  3 21  1  0  0  0  0
 21 22  1  0  0  0  0
M  END
>  <InstanceId>
5I7X_67B_A_201

>  <ChemCompId>
67B

>  <PdbId>
5I7X

>  <ChainId>
A

>  <ResidueNumber>
201

>  <InsertionCode>


>  <Model>
1

>  <AltIds>


>  <MissingHeavyAtoms>
0

>  <ObservedFormula>
C17 N3 O2

>  <Name>
N,N-dimethyl-3-(6-methyl-7-oxo-6,7-dihydro-1H-pyrrolo[2,3-c]pyridin-4-yl)benzamide

>  <SystematicName>
~{N},~{N}-dimethyl-3-(6-methyl-7-oxidanylidene-1~{H}-pyrrolo[2,3-c]pyridin-4-yl)benzamide

>  <Synonyms>


>  <Type>
NON-POLYMER

>  <Formula>
C17 H17 N3 O2

>  <MolecularWeight>
295.336

>  <ModifiedDate>
2016-06-03

>  <Parent>


>  <OneLetterCode>


>  <SubcomponentList>


>  <AmbiguousFlag>
N

>  <InChI>
InChI=1S/C17H17N3O2/c1-19(2)16(21)12-6-4-5-11(9-12)14-10-20(3)17(22)15-13(14)7-8-18-15/h4-10,18H,1-3H3

>  <InChIKey>
YHMNROQTPUKNLA-UHFFFAOYSA-N

>  <SMILES>
CN1C=C(c2cc[nH]c2C1=O)c3cccc(c3)C(=O)N(C)C

$$$$
