6MA2_J9S_A_1101
  RCSB PDB08022005293D
Coordinates from PDB:6MA2:A:1101 Model:1 without hydrogens
 37 40  0  0  0  0            999 V2000
    1.2830  -43.8060   16.1390   N 0  0  0  0  0  0  0  0  0  0  0  0
    1.5850  -45.0800   16.8990   C 0  0  0  0  0  0  0  0  0  0  0  0
   -1.3120  -49.0170   18.2480   C 0  0  0  0  0  0  0  0  0  0  0  0
    1.6260  -48.3330   17.3230   C 0  0  0  0  0  0  0  0  0  0  0  0
    2.5540  -48.8450   16.1510   C 0  0  0  0  0  0  0  0  0  0  0  0
    2.3930  -49.8160   15.1780   C 0  0  0  0  0  0  0  0  0  0  0  0
    4.5440  -49.1460   14.5020   C 0  0  0  0  0  0  0  0  0  0  0  0
    3.3270  -45.0970   18.8660   C 0  0  0  0  0  0  0  0  0  0  0  0
   -0.0990  -49.2710    9.3830   O 0  0  0  0  0  0  0  0  0  0  0  0
    0.0320  -48.3060   10.1180   C 0  0  0  0  0  0  0  0  0  0  0  0
    1.2070  -48.2140   10.8920   N 0  0  0  0  0  0  0  0  0  0  0  0
    1.4460  -47.1120   11.7780   C 0  0  0  0  0  0  0  0  0  0  0  0
    0.4760  -46.0760   11.9000   C 0  0  0  0  0  0  0  0  0  0  0  0
   -0.7670  -46.1650   11.1100   C 0  0  0  0  0  0  0  0  0  0  0  0
   -0.9820  -47.2320   10.2510   C 0  0  0  0  0  0  0  0  0  0  0  0
    0.7730  -44.9880   12.8170   C 0  0  0  0  0  0  0  0  0  0  0  0
    1.9410  -44.8700   13.5830   C 0  0  0  0  0  0  0  0  0  0  0  0
    2.2540  -43.4370   14.8130   S 0  0  0  0  0  0  0  0  0  0  0  0
    3.6050  -43.6140   15.1820   O 0  0  0  0  0  0  0  0  0  0  0  0
    0.3290  -46.1460   16.7590   C 0  0  0  0  0  0  0  0  0  0  0  0
    0.3590  -47.5080   16.9470   N 0  0  0  0  0  0  0  0  0  0  0  0
   -0.8580  -48.3440   16.8230   C 0  0  0  0  0  0  0  0  0  0  0  0
   -1.5630  -48.2120   19.1790   O 0  0  0  0  0  0  0  0  0  0  0  0
   -1.3730  -50.2730   18.3480   O 0  0  0  0  0  0  0  0  0  0  0  0
    3.4920  -49.9870   14.2660   C 0  0  0  0  0  0  0  0  0  0  0  0
    4.1510  -48.1450   15.8690   S 0  0  0  0  0  0  0  0  0  0  0  0
   -0.7070  -45.4820   16.4640   O 0  0  0  0  0  0  0  0  0  0  0  0
    2.0010  -44.8280   18.4000   C 0  0  0  0  0  0  0  0  0  0  0  0
    4.2160  -45.5900   17.8980   O 0  0  0  0  0  0  0  0  0  0  0  0
    5.6260  -45.8240   18.1810   C 0  0  0  0  0  0  0  0  0  0  0  0
    3.6840  -44.8710   20.2100   C 0  0  0  0  0  0  0  0  0  0  0  0
    2.7400  -44.3770   21.1300   C 0  0  0  0  0  0  0  0  0  0  0  0
    1.4290  -44.0990   20.7100   C 0  0  0  0  0  0  0  0  0  0  0  0
    1.0650  -44.3280   19.3530   C 0  0  0  0  0  0  0  0  0  0  0  0
    1.9600  -42.2190   14.1770   O 0  0  0  0  0  0  0  0  0  0  0  0
    2.8790  -45.9480   13.4450   C 0  0  0  0  0  0  0  0  0  0  0  0
    2.6510  -47.0260   12.5600   C 0  0  0  0  0  0  0  0  0  0  0  0
  9 10  2  0  0  0  0
 10 15  1  0  0  0  0
 10 11  1  0  0  0  0
 15 14  2  0  0  0  0
 11 12  1  0  0  0  0
 14 13  1  0  0  0  0
 12 13  2  0  0  0  0
 12 37  1  0  0  0  0
 13 16  1  0  0  0  0
 37 36  2  0  0  0  0
 16 17  2  0  0  0  0
 36 17  1  0  0  0  0
 17 18  1  0  0  0  0
 35 18  2  0  0  0  0
 25  7  2  0  0  0  0
 25  6  1  0  0  0  0
  7 26  1  0  0  0  0
 18 19  2  0  0  0  0
 18  1  1  0  0  0  0
  6  5  2  0  0  0  0
 26  5  1  0  0  0  0
  1  2  1  0  0  0  0
  5  4  1  0  0  0  0
 27 20  2  0  0  0  0
 20  2  1  0  0  0  0
 20 21  1  0  0  0  0
 22 21  1  0  0  0  0
 22  3  1  0  0  0  0
  2 28  1  0  0  0  0
 21  4  1  0  0  0  0
 29 30  1  0  0  0  0
 29  8  1  0  0  0  0
  3 24  2  0  0  0  0
  3 23  1  0  0  0  0
 28  8  2  0  0  0  0
 28 34  1  0  0  0  0
  8 31  1  0  0  0  0
 34 33  2  0  0  0  0
 31 32  2  0  0  0  0
 33 32  1  0  0  0  0
M  END
>  <InstanceId>
6MA2_J9S_A_1101

>  <ChemCompId>
J9S

>  <PdbId>
6MA2

>  <ChainId>
A

>  <ResidueNumber>
1101

>  <InsertionCode>


>  <Model>
1

>  <AltIds>


>  <MissingHeavyAtoms>
0

>  <ObservedFormula>
C25 N3 O7 S2

>  <Name>
N-[(2S)-2-(2-methoxyphenyl)-2-{[(2-oxo-1,2-dihydroquinolin-6-yl)sulfonyl]amino}acetyl]-N-[(thiophen-2-yl)methyl]glycine

>  <SystematicName>
2-[[(2~{S})-2-(2-methoxyphenyl)-2-[(2-oxidanylidene-1~{H}-quinolin-6-yl)sulfonylamino]ethanoyl]-(thiophen-2-ylmethyl)amino]ethanoic acid

>  <Synonyms>


>  <Type>
NON-POLYMER

>  <Formula>
C25 H23 N3 O7 S2

>  <MolecularWeight>
541.596

>  <ModifiedDate>
2018-10-12

>  <Parent>


>  <OneLetterCode>


>  <SubcomponentList>


>  <AmbiguousFlag>
N

>  <InChI>
InChI=1S/C25H23N3O7S2/c1-35-21-7-3-2-6-19(21)24(25(32)28(15-23(30)31)14-17-5-4-12-36-17)27-37(33,34)18-9-10-20-16(13-18)8-11-22(29)26-20/h2-13,24,27H,14-15H2,1H3,(H,26,29)(H,30,31)/t24-/m0/s1

>  <InChIKey>
OIUMFGYEVQJCBR-DEOSSOPVSA-N

>  <SMILES>
COc1ccccc1[C@@H](C(=O)N(Cc2cccs2)CC(=O)O)NS(=O)(=O)c3ccc4c(c3)C=CC(=O)N4

$$$$
