5VD2_34W_A_601
  RCSB PDB08022003203D
Coordinates from PDB:5VD2:A:601 Model:1 without hydrogens
 34 38  0  0  0  0            999 V2000
  -14.4270   10.7960    7.2300   C 0  0  0  0  0  0  0  0  0  0  0  0
  -13.2800   10.4370    8.0860   C 0  0  0  0  0  0  0  0  0  0  0  0
  -13.5030    9.8290    9.1700   O 0  0  0  0  0  0  0  0  0  0  0  0
  -12.0090   10.7590    7.6990   N 0  0  0  0  0  0  0  0  0  0  0  0
  -10.9040   10.8070    8.6070   C 0  0  0  0  0  0  0  0  0  0  0  0
   -9.6210   10.3030    8.0410   C 0  0  0  0  0  0  0  0  0  0  0  0
   -9.5840    9.9580    6.8280   O 0  0  0  0  0  0  0  0  0  0  0  0
   -8.4730   10.2060    8.7970   N 0  0  0  0  0  0  0  0  0  0  0  0
   -7.1130   10.3410    8.3570   C 0  0  0  0  0  0  0  0  0  0  0  0
   -6.6650   11.6840    9.0300   C 0  0  0  0  0  0  0  0  0  0  0  0
   -7.5730   11.7460   10.2890   C 0  0  0  0  0  0  0  0  0  0  0  0
   -8.3270   10.3800   10.2070   C 0  0  0  0  0  0  0  0  0  0  0  0
   -7.4270    9.2080   10.3120   C 0  0  0  0  0  0  0  0  0  0  0  0
   -6.6620    9.1850    9.1440   C 0  0  0  0  0  0  0  0  0  0  0  0
   -5.6980    8.1980    8.9150   C 0  0  0  0  0  0  0  0  0  0  0  0
   -5.5260    7.2160    9.9150   C 0  0  0  0  0  0  0  0  0  0  0  0
   -6.2950    7.2110   11.1090   C 0  0  0  0  0  0  0  0  0  0  0  0
   -7.2580    8.2330   11.3060   C 0  0  0  0  0  0  0  0  0  0  0  0
   -6.1040    6.2600   12.0690   N 0  0  0  0  0  0  0  0  0  0  0  0
   -5.3410    5.1320   12.1730   C 0  0  0  0  0  0  0  0  0  0  0  0
   -5.4120    4.3480   13.2730   N 0  0  0  0  0  0  0  0  0  0  0  0
   -4.6880    3.2230   13.4220   C 0  0  0  0  0  0  0  0  0  0  0  0
   -3.7930    2.8070   12.4240   C 0  0  0  0  0  0  0  0  0  0  0  0
   -3.7230    3.6330   11.2730   C 0  0  0  0  0  0  0  0  0  0  0  0
   -4.4890    4.7510   11.1980   N 0  0  0  0  0  0  0  0  0  0  0  0
   -2.8960    3.3370   10.2370   N 0  0  0  0  0  0  0  0  0  0  0  0
   -2.5470    4.3040    9.2440   C 0  0  0  0  0  0  0  0  0  0  0  0
   -3.5400    4.3260    8.0660   C 0  0  0  0  0  0  0  0  0  0  0  0
   -2.3330    4.4450    7.1290   C 0  0  0  0  0  0  0  0  0  0  0  0
   -1.4990    3.7820    8.2380   C 0  0  0  0  0  0  0  0  0  0  0  0
   -3.0100    1.5540   12.6050   C 0  0  0  0  0  0  0  0  0  0  0  0
   -1.6430    1.7340   12.5750   F 0  0  0  0  0  0  0  0  0  0  0  0
   -3.3350    0.6850   11.6120   F 0  0  0  0  0  0  0  0  0  0  0  0
   -3.2860    0.9420   13.7890   F 0  0  0  0  0  0  0  0  0  0  0  0
 11 10  1  0  0  0  0
 11 12  1  0  0  0  0
 10  9  1  0  0  0  0
 12  8  1  0  0  0  0
 12 13  1  0  0  0  0
  3  2  2  0  0  0  0
  8  9  1  0  0  0  0
  8  6  1  0  0  0  0
 13 18  2  0  0  0  0
 13 14  1  0  0  0  0
  5  6  1  0  0  0  0
  5  4  1  0  0  0  0
 18 17  1  0  0  0  0
  9 14  1  0  0  0  0
  2  4  1  0  0  0  0
  2  1  1  0  0  0  0
  6  7  2  0  0  0  0
 14 15  2  0  0  0  0
 17 19  1  0  0  0  0
 17 16  2  0  0  0  0
 19 20  1  0  0  0  0
 15 16  1  0  0  0  0
 21 20  2  0  0  0  0
 21 22  1  0  0  0  0
 20 25  1  0  0  0  0
 22 23  2  0  0  0  0
 25 24  2  0  0  0  0
 23 24  1  0  0  0  0
 23 31  1  0  0  0  0
 24 26  1  0  0  0  0
 34 31  1  0  0  0  0
 30 27  1  0  0  0  0
 30 29  1  0  0  0  0
 31 32  1  0  0  0  0
 31 33  1  0  0  0  0
 26 27  1  0  0  0  0
 27 28  1  0  0  0  0
 29 28  1  0  0  0  0
M  END
>  <InstanceId>
5VD2_34W_A_601

>  <ChemCompId>
34W

>  <PdbId>
5VD2

>  <ChainId>
A

>  <ResidueNumber>
601

>  <InsertionCode>


>  <Model>
1

>  <AltIds>


>  <MissingHeavyAtoms>
0

>  <ObservedFormula>
C23 N6 O2 F3

>  <Name>
N-{2-[(1S,4R)-6-{[4-(cyclobutylamino)-5-(trifluoromethyl)pyrimidin-2-yl]amino}-1,2,3,4-tetrahydro-1,4-epiminonaphthalen-9-yl]-2-oxoethyl}acetamide

>  <SystematicName>


>  <Synonyms>


>  <Type>
NON-POLYMER

>  <Formula>
C23 H25 F3 N6 O2

>  <MolecularWeight>
474.479

>  <ModifiedDate>
2015-06-26

>  <Parent>


>  <OneLetterCode>


>  <SubcomponentList>


>  <AmbiguousFlag>
N

>  <InChI>
InChI=1S/C23H25F3N6O2/c1-12(33)27-11-20(34)32-18-7-8-19(32)16-9-14(5-6-15(16)18)30-22-28-10-17(23(24,25)26)21(31-22)29-13-3-2-4-13/h5-6,9-10,13,18-19H,2-4,7-8,11H2,1H3,(H,27,33)(H2,28,29,30,31)/t18-,19+/m0/s1

>  <InChIKey>
RYYNGWLOYLRZLK-RBUKOAKNSA-N

>  <SMILES>
CC(=O)NCC(=O)N1[C@H]2CC[C@@H]1c3c2ccc(c3)Nc4ncc(c(n4)NC5CCC5)C(F)(F)F

$$$$
