3O9P_MHI_A_516
  RCSB PDB08012019593D
Coordinates from PDB:3O9P:A:516 Model:1 without hydrogens
 27 26  0  0  0  0            999 V2000
   13.9010   55.4970   39.6030   C 0  0  0  0  0  0  0  0  0  0  0  0
   11.6660   54.7650   39.0260   N 0  0  0  0  0  0  0  0  0  0  0  0
   11.2740   57.3170   39.7000   O 0  0  0  0  0  0  0  0  0  0  0  0
   12.4230   55.3430   40.1100   C 0  0  0  0  0  0  0  0  0  0  0  0
   12.0990   57.1490   41.7450   N 0  0  0  0  0  0  0  0  0  0  0  0
   11.7910   57.3670   44.4160   O 0  0  0  0  0  0  0  0  0  0  0  0
   11.8690   56.6880   40.5110   C 0  0  0  0  0  0  0  0  0  0  0  0
   13.3980   61.9190   39.6640   N 0  0  0  0  0  0  0  0  0  0  0  0
   10.7170   59.2320   44.2480   O 0  0  0  0  0  0  0  0  0  0  0  0
   11.5870   58.4290   42.2150   C 0  0  0  0  0  0  0  0  0  0  0  0
   15.2220   65.6490   33.6330   N 0  0  0  0  0  0  0  0  0  0  0  0
   15.0560   60.8900   40.7570   O 0  0  0  0  0  0  0  0  0  0  0  0
   11.3130   58.3530   43.6850   C 0  0  0  0  0  0  0  0  0  0  0  0
   14.4940   65.3490   40.2320   O 0  0  0  0  0  0  0  0  0  0  0  0
   12.5630   59.5780   41.9900   C 0  0  0  0  0  0  0  0  0  0  0  0
   12.7470   64.2830   40.8560   O 0  0  0  0  0  0  0  0  0  0  0  0
   12.9740   59.6920   40.5230   C 0  0  0  0  0  0  0  0  0  0  0  0
   15.3110   67.4810   36.6150   O 0  0  0  0  0  0  0  0  0  0  0  0
   13.8980   60.8910   40.3340   C 0  0  0  0  0  0  0  0  0  0  0  0
   14.3280   67.7710   34.6270   O 0  0  0  0  0  0  0  0  0  0  0  0
   14.1550   63.0820   39.2840   C 0  0  0  0  0  0  0  0  0  0  0  0
   13.7440   64.2700   40.1510   C 0  0  0  0  0  0  0  0  0  0  0  0
   13.8570   63.3120   37.8160   C 0  0  0  0  0  0  0  0  0  0  0  0
   14.4860   64.5820   37.2600   C 0  0  0  0  0  0  0  0  0  0  0  0
   14.4360   64.6570   35.7540   C 0  0  0  0  0  0  0  0  0  0  0  0
   14.9630   67.0550   35.4210   C 0  0  0  0  0  0  0  0  0  0  0  0
   15.3580   65.6810   35.0720   C 0  0  0  0  0  0  0  0  0  0  0  0
  1  4  1  0  0  0  0
  2  4  1  0  0  0  0
  3  7  2  0  0  0  0
  4  7  1  0  0  0  0
  5  7  1  0  0  0  0
  5 10  1  0  0  0  0
  6 13  2  0  0  0  0
  8 19  1  0  0  0  0
  8 21  1  0  0  0  0
  9 13  1  0  0  0  0
 10 13  1  0  0  0  0
 10 15  1  0  0  0  0
 11 27  1  0  0  0  0
 12 19  2  0  0  0  0
 14 22  2  0  0  0  0
 15 17  1  0  0  0  0
 16 22  1  0  0  0  0
 17 19  1  0  0  0  0
 18 26  2  0  0  0  0
 20 26  1  0  0  0  0
 21 22  1  0  0  0  0
 21 23  1  0  0  0  0
 23 24  1  0  0  0  0
 24 25  1  0  0  0  0
 25 27  1  0  0  0  0
 26 27  1  0  0  0  0
M  END
>  <InstanceId>
3O9P_MHI_A_516

>  <ChemCompId>
MHI

>  <PdbId>
3O9P

>  <ChainId>
A

>  <ResidueNumber>
516

>  <InsertionCode>


>  <Model>
1

>  <AltIds>


>  <MissingHeavyAtoms>
0

>  <ObservedFormula>
C15 N4 O8

>  <Name>
L-ALA-GAMMA-D-GLU-MESO-DIAMINOPIMELIC ACID

>  <SystematicName>
(2R,6S)-2-amino-6-[[(4R)-4-[[(2S)-2-aminopropanoyl]amino]-5-hydroxy-5-oxo-pentanoyl]amino]heptanedioic acid

>  <Synonyms>


>  <Type>
non-polymer

>  <Formula>
C15 H26 N4 O8

>  <MolecularWeight>
390.389

>  <ModifiedDate>
2011-07-01

>  <Parent>


>  <OneLetterCode>


>  <SubcomponentList>
ALA DGL API

>  <AmbiguousFlag>
N

>  <InChI>
InChI=1S/C15H26N4O8/c1-7(16)12(21)19-10(15(26)27)5-6-11(20)18-9(14(24)25)4-2-3-8(17)13(22)23/h7-10H,2-6,16-17H2,1H3,(H,18,20)(H,19,21)(H,22,23)(H,24,25)(H,26,27)/t7-,8+,9-,10+/m0/s1

>  <InChIKey>
FMNCPUGORYYCEM-QCLAVDOMSA-N

>  <SMILES>
C[C@@H](C(=O)N[C@H](CCC(=O)N[C@@H](CCC[C@H](C(=O)O)N)C(=O)O)C(=O)O)N

$$$$
