3TA1_ADP_A_119
  RCSB PDB08012020333D
Coordinates from PDB:3TA1:A:119 Model:1 without hydrogens
 27 29  0  0  0  0            999 V2000
    4.4500  -14.4340  -14.8080   P 0  0  0  0  0  0  0  0  0  0  0  0
    5.2200  -15.3710  -15.7710   O 0  0  0  0  0  0  0  0  0  0  0  0
    3.6410  -15.2120  -13.8340   O 0  0  0  0  0  0  0  0  0  0  0  0
    5.5160  -13.6110  -14.1080   O 0  0  0  0  0  0  0  0  0  0  0  0
    3.8330  -12.6540  -16.8640   P 0  0  0  0  0  0  0  0  0  0  0  0
    4.5180  -13.4840  -17.9300   O 0  0  0  0  0  0  0  0  0  0  0  0
    2.5180  -12.0450  -17.3070   O 0  0  0  0  0  0  0  0  0  0  0  0
    3.5200  -13.5490  -15.6440   O 0  0  0  0  0  0  0  0  0  0  0  0
    4.8920  -11.4950  -16.4640   O 0  0  0  0  0  0  0  0  0  0  0  0
    4.5140  -10.6570  -15.4110   C 0  0  0  0  0  0  0  0  0  0  0  0
    5.2720   -9.3360  -15.6180   C 0  0  0  0  0  0  0  0  0  0  0  0
    6.6890   -9.5730  -15.6290   O 0  0  0  0  0  0  0  0  0  0  0  0
    4.9460   -8.7260  -16.9780   C 0  0  0  0  0  0  0  0  0  0  0  0
    3.7570   -7.9130  -16.9820   O 0  0  0  0  0  0  0  0  0  0  0  0
    6.2390   -7.9110  -17.3100   C 0  0  0  0  0  0  0  0  0  0  0  0
    6.1580   -6.6840  -16.6060   O 0  0  0  0  0  0  0  0  0  0  0  0
    7.3300   -8.7740  -16.6930   C 0  0  0  0  0  0  0  0  0  0  0  0
    8.0440   -9.7080  -17.5980   N 0  0  0  0  0  0  0  0  0  0  0  0
    7.7420  -11.0130  -17.9150   C 0  0  0  0  0  0  0  0  0  0  0  0
    8.6530  -11.5580  -18.7230   N 0  0  0  0  0  0  0  0  0  0  0  0
    9.5900  -10.5500  -18.9230   C 0  0  0  0  0  0  0  0  0  0  0  0
   10.7950  -10.4790  -19.6850   C 0  0  0  0  0  0  0  0  0  0  0  0
   11.2720  -11.5970  -20.3690   N 0  0  0  0  0  0  0  0  0  0  0  0
   11.4920   -9.2940  -19.6930   N 0  0  0  0  0  0  0  0  0  0  0  0
   11.0330   -8.2200  -19.0260   C 0  0  0  0  0  0  0  0  0  0  0  0
    9.8830   -8.2170  -18.2580   N 0  0  0  0  0  0  0  0  0  0  0  0
    9.2260   -9.3930  -18.2630   C 0  0  0  0  0  0  0  0  0  0  0  0
  1  2  2  0  0  0  0
  1  3  1  0  0  0  0
  1  4  1  0  0  0  0
  1  8  1  0  0  0  0
  5  6  2  0  0  0  0
  5  7  1  0  0  0  0
  5  8  1  0  0  0  0
  5  9  1  0  0  0  0
  9 10  1  0  0  0  0
 10 11  1  0  0  0  0
 11 12  1  0  0  0  0
 11 13  1  0  0  0  0
 12 17  1  0  0  0  0
 13 14  1  0  0  0  0
 13 15  1  0  0  0  0
 15 16  1  0  0  0  0
 15 17  1  0  0  0  0
 17 18  1  0  0  0  0
 18 19  1  0  0  0  0
 18 27  1  0  0  0  0
 19 20  2  0  0  0  0
 20 21  1  0  0  0  0
 21 22  1  0  0  0  0
 21 27  2  0  0  0  0
 22 23  1  0  0  0  0
 22 24  2  0  0  0  0
 24 25  1  0  0  0  0
 25 26  2  0  0  0  0
 26 27  1  0  0  0  0
M  END
>  <InstanceId>
3TA1_ADP_A_119

>  <ChemCompId>
ADP

>  <PdbId>
3TA1

>  <ChainId>
A

>  <ResidueNumber>
119

>  <InsertionCode>


>  <Model>
1

>  <AltIds>


>  <MissingHeavyAtoms>
0

>  <ObservedFormula>
C10 N5 O10 P2

>  <Name>
ADENOSINE-5'-DIPHOSPHATE

>  <SystematicName>
[(2R,3S,4R,5R)-5-(6-aminopurin-9-yl)-3,4-dihydroxy-oxolan-2-yl]methyl phosphono hydrogen phosphate

>  <Synonyms>


>  <Type>
NON-POLYMER

>  <Formula>
C10 H15 N5 O10 P2

>  <MolecularWeight>
427.201

>  <ModifiedDate>
2011-06-04

>  <Parent>
A

>  <OneLetterCode>


>  <SubcomponentList>


>  <AmbiguousFlag>
N

>  <InChI>
InChI=1S/C10H15N5O10P2/c11-8-5-9(13-2-12-8)15(3-14-5)10-7(17)6(16)4(24-10)1-23-27(21,22)25-26(18,19)20/h2-4,6-7,10,16-17H,1H2,(H,21,22)(H2,11,12,13)(H2,18,19,20)/t4-,6-,7-,10-/m1/s1

>  <InChIKey>
XTWYTFMLZFPYCI-KQYNXXCUSA-N

>  <SMILES>
c1nc(c2c(n1)n(cn2)[C@H]3[C@@H]([C@@H]([C@H](O3)CO[P@](=O)(O)OP(=O)(O)O)O)O)N

$$$$
