2VW1_DAN_A_1000
  RCSB PDB08012018043D
Coordinates from PDB:2VW1:A:1000 Model:1 without hydrogens
 20 20  0  0  0  0            999 V2000
   -2.6680   76.6760   25.8690   C 0  0  0  0  0  0  0  0  0  0  0  0
   -3.3480   76.2080   24.6490   C 0  0  0  0  0  0  0  0  0  0  0  0
   -3.1630   74.9980   24.0900   C 0  0  0  0  0  0  0  0  0  0  0  0
   -3.9370   74.5240   22.8550   C 0  0  0  0  0  0  0  0  0  0  0  0
   -4.5840   75.6720   22.0670   C 0  0  0  0  0  0  0  0  0  0  0  0
   -5.2300   76.5990   23.1100   C 0  0  0  0  0  0  0  0  0  0  0  0
   -5.9240   77.7760   22.4460   C 0  0  0  0  0  0  0  0  0  0  0  0
   -6.6560   78.7280   23.3820   C 0  0  0  0  0  0  0  0  0  0  0  0
   -5.7540   79.6220   24.2410   C 0  0  0  0  0  0  0  0  0  0  0  0
   -5.8020   75.4990   19.8620   C 0  0  0  0  0  0  0  0  0  0  0  0
   -6.9000   74.7770   19.1420   C 0  0  0  0  0  0  0  0  0  0  0  0
   -5.6270   75.1730   21.1630   N 0  0  0  0  0  0  0  0  0  0  0  0
   -1.5250   76.3200   26.2450   O 0  0  0  0  0  0  0  0  0  0  0  0
   -3.2970   77.4700   26.5940   O 0  0  0  0  0  0  0  0  0  0  0  0
   -3.2240   73.5030   22.1000   O 0  0  0  0  0  0  0  0  0  0  0  0
   -4.2860   77.1370   24.0450   O 0  0  0  0  0  0  0  0  0  0  0  0
   -4.9740   78.4940   21.6520   O 0  0  0  0  0  0  0  0  0  0  0  0
   -7.4400   79.5680   22.5180   O 0  0  0  0  0  0  0  0  0  0  0  0
   -5.4890   79.0790   25.5420   O 0  0  0  0  0  0  0  0  0  0  0  0
   -5.1240   76.3000   19.2340   O 0  0  0  0  0  0  0  0  0  0  0  0
  1  2  1  0  0  0  0
  1 13  2  0  0  0  0
  1 14  1  0  0  0  0
  2  3  2  0  0  0  0
  2 16  1  0  0  0  0
  3  4  1  0  0  0  0
  4  5  1  0  0  0  0
  4 15  1  0  0  0  0
  5  6  1  0  0  0  0
  5 12  1  0  0  0  0
  6  7  1  0  0  0  0
  6 16  1  0  0  0  0
  7  8  1  0  0  0  0
  7 17  1  0  0  0  0
  8  9  1  0  0  0  0
  8 18  1  0  0  0  0
  9 19  1  0  0  0  0
 10 11  1  0  0  0  0
 10 12  1  0  0  0  0
 10 20  2  0  0  0  0
M  END
>  <InstanceId>
2VW1_DAN_A_1000

>  <ChemCompId>
DAN

>  <PdbId>
2VW1

>  <ChainId>
A

>  <ResidueNumber>
1000

>  <InsertionCode>


>  <Model>
1

>  <AltIds>


>  <MissingHeavyAtoms>
0

>  <ObservedFormula>
C11 N O8

>  <Name>
2-DEOXY-2,3-DEHYDRO-N-ACETYL-NEURAMINIC ACID

>  <SystematicName>
(4S,5R,6R)-5-acetamido-4-hydroxy-6-[(1R,2R)-1,2,3-trihydroxypropyl]-5,6-dihydro-4H-pyran-2-carboxylic acid

>  <Synonyms>
Neu5Ac2en

>  <Type>
D-saccharide

>  <Formula>
C11 H17 N O8

>  <MolecularWeight>
291.255

>  <ModifiedDate>
2020-07-17

>  <Parent>


>  <OneLetterCode>


>  <SubcomponentList>


>  <AmbiguousFlag>
N

>  <InChI>
InChI=1S/C11H17NO8/c1-4(14)12-8-5(15)2-7(11(18)19)20-10(8)9(17)6(16)3-13/h2,5-6,8-10,13,15-17H,3H2,1H3,(H,12,14)(H,18,19)/t5-,6+,8+,9+,10+/m0/s1

>  <InChIKey>
JINJZWSZQKHCIP-UFGQHTETSA-N

>  <SMILES>
CC(=O)N[C@@H]1[C@H](C=C(O[C@H]1[C@@H]([C@@H](CO)O)O)C(=O)O)O

$$$$
