5FOL_SO8_A_1544
  RCSB PDB08022001253D
Coordinates from PDB:5FOL:A:1544 Model:1 without hydrogens
 27 29  0  0  0  0            999 V2000
   16.9370    3.6030   19.8590   C 0  0  0  0  0  0  0  0  0  0  0  0
   17.9880    1.7460   20.9910   N 0  0  0  0  0  0  0  0  0  0  0  0
   17.7540    4.2320   19.2290   O 0  0  0  0  0  0  0  0  0  0  0  0
   13.5080   -1.3710   14.3200   N 0  0  0  0  0  0  0  0  0  0  0  0
   13.1130   -1.3150   15.7080   C 0  0  0  0  0  0  0  0  0  0  0  0
   13.4190   -0.0850   16.4150   N 0  0  0  0  0  0  0  0  0  0  0  0
   14.0740    0.9540   15.8060   C 0  0  0  0  0  0  0  0  0  0  0  0
   14.4870    0.8700   14.4040   C 0  0  0  0  0  0  0  0  0  0  0  0
   14.1420   -0.3710   13.6680   C 0  0  0  0  0  0  0  0  0  0  0  0
   14.4740   -0.5090   12.3830   N 0  0  0  0  0  0  0  0  0  0  0  0
   15.0770    2.0330   14.0810   N 0  0  0  0  0  0  0  0  0  0  0  0
   15.0740    2.7980   15.2000   C 0  0  0  0  0  0  0  0  0  0  0  0
   14.4870    2.1290   16.2480   N 0  0  0  0  0  0  0  0  0  0  0  0
   17.2820    3.0120   21.2100   C 0  0  0  0  0  0  0  0  0  0  0  0
   18.1010    3.8130   22.2240   C 0  0  0  0  0  0  0  0  0  0  0  0
   15.6810    3.3980   19.4190   N 0  0  0  0  0  0  0  0  0  0  0  0
   15.2070    3.7710   18.0910   C 0  0  0  0  0  0  0  0  0  0  0  0
   14.2960    4.9780   18.0990   C 0  0  0  0  0  0  0  0  0  0  0  0
   14.6680    6.0110   18.9950   O 0  0  0  0  0  0  0  0  0  0  0  0
   12.9660    4.3080   18.4640   C 0  0  0  0  0  0  0  0  0  0  0  0
   11.7560    5.1890   18.2230   C 0  0  0  0  0  0  0  0  0  0  0  0
   11.7670    5.6160   16.8720   O 0  0  0  0  0  0  0  0  0  0  0  0
   12.9380    3.1010   17.6660   O 0  0  0  0  0  0  0  0  0  0  0  0
   14.2660    2.6060   17.6340   C 0  0  0  0  0  0  0  0  0  0  0  0
   17.6530    5.1460   24.3160   C 0  0  0  0  0  0  0  0  0  0  0  0
   17.2280    4.8890   22.8860   C 0  0  0  0  0  0  0  0  0  0  0  0
   19.4150    4.3540   21.6500   C 0  0  0  0  0  0  0  0  0  0  0  0
  1  3  2  0  0  0  0
  1 14  1  0  0  0  0
  1 16  1  0  0  0  0
  2 14  1  0  0  0  0
  4  5  2  0  0  0  0
  4  9  1  0  0  0  0
  5  6  1  0  0  0  0
  6  7  2  0  0  0  0
  7  8  1  0  0  0  0
  7 13  1  0  0  0  0
  8  9  2  0  0  0  0
  8 11  1  0  0  0  0
  9 10  1  0  0  0  0
 11 12  2  0  0  0  0
 12 13  1  0  0  0  0
 13 24  1  0  0  0  0
 14 15  1  0  0  0  0
 15 26  1  0  0  0  0
 15 27  1  0  0  0  0
 16 17  1  0  0  0  0
 17 18  1  0  0  0  0
 17 24  1  0  0  0  0
 18 19  1  0  0  0  0
 18 20  1  0  0  0  0
 20 21  1  0  0  0  0
 20 23  1  0  0  0  0
 21 22  1  0  0  0  0
 23 24  1  0  0  0  0
 25 26  1  0  0  0  0
M  END
>  <InstanceId>
5FOL_SO8_A_1544

>  <ChemCompId>
SO8

>  <PdbId>
5FOL

>  <ChainId>
A

>  <ResidueNumber>
1544

>  <InsertionCode>


>  <Model>
1

>  <AltIds>


>  <MissingHeavyAtoms>
0

>  <ObservedFormula>
C16 N7 O4

>  <Name>
2'-(L-ISOLEUCYL)AMINO-2'-DEOXYADENOSINE

>  <SystematicName>
(2S,3S)-N-[(2R,3R,4S,5R)-2-(6-aminopurin-9-yl)-5-(hydroxymethyl)-4-oxidanyl-oxolan-3-yl]-2-azanyl-3-methyl-pentanamide

>  <Synonyms>


>  <Type>
NON-POLYMER

>  <Formula>
C16 H25 N7 O4

>  <MolecularWeight>
379.414

>  <ModifiedDate>
2016-07-29

>  <Parent>


>  <OneLetterCode>


>  <SubcomponentList>


>  <AmbiguousFlag>
N

>  <InChI>
InChI=1S/C16H25N7O4/c1-3-7(2)9(17)15(26)22-10-12(25)8(4-24)27-16(10)23-6-21-11-13(18)19-5-20-14(11)23/h5-10,12,16,24-25H,3-4,17H2,1-2H3,(H,22,26)(H2,18,19,20)/t7-,8+,9-,10+,12+,16+/m0/s1

>  <InChIKey>
GWYBWPBDPROZEC-DTKXOMKJSA-N

>  <SMILES>
CC[C@H](C)[C@@H](C(=O)N[C@@H]1[C@@H]([C@H](O[C@H]1n2cnc3c2ncnc3N)CO)O)N

$$$$
