6HPW_GKT_A_209
  RCSB PDB08022005013D
Coordinates from PDB:6HPW:A:209 Model:1 without hydrogens
 27 30  0  0  0  0            999 V2000
    3.9140   14.9260   12.2820   C 0  0  0  0  0  0  0  0  0  0  0  0
    2.9040   14.0080   11.9870   C 0  0  0  0  0  0  0  0  0  0  0  0
    1.6920   14.0100   12.6550   C 0  0  0  0  0  0  0  0  0  0  0  0
    1.4440   14.9320   13.6600   C 0  0  0  0  0  0  0  0  0  0  0  0
    2.4410   15.8530   13.9840   C 0  0  0  0  0  0  0  0  0  0  0  0
    3.6430   15.8680   13.2800   C 0  0  0  0  0  0  0  0  0  0  0  0
    0.0870   14.9760   14.2830   C 0  0  0  0  0  0  0  0  0  0  0  0
   -0.9220   14.7860   13.6140   O 0  0  0  0  0  0  0  0  0  0  0  0
    4.9570   17.5290   13.5660   I 0  0  0  0  0  0  0  0  0  0  0  0
    5.2310   14.8420   11.5590   C 0  0  0  0  0  0  0  0  0  0  0  0
    0.0570   15.2350   15.6020   N 0  0  0  0  0  0  0  0  0  0  0  0
   -1.0660   15.2740   16.4380   C 0  0  0  0  0  0  0  0  0  0  0  0
   -2.2970   14.7540   16.0290   C 0  0  0  0  0  0  0  0  0  0  0  0
   -3.3350   14.6940   16.9490   C 0  0  0  0  0  0  0  0  0  0  0  0
   -3.1440   15.1720   18.2400   C 0  0  0  0  0  0  0  0  0  0  0  0
   -1.9350   15.7070   18.6520   C 0  0  0  0  0  0  0  0  0  0  0  0
   -0.8960   15.7580   17.7370   C 0  0  0  0  0  0  0  0  0  0  0  0
   -4.6270   14.2060   16.8220   N 0  0  0  0  0  0  0  0  0  0  0  0
   -5.1870   14.4070   18.0010   C 0  0  0  0  0  0  0  0  0  0  0  0
   -4.3440   14.9740   18.8900   N 0  0  0  0  0  0  0  0  0  0  0  0
   -6.6260   14.1520   18.3170   C 0  0  0  0  0  0  0  0  0  0  0  0
   -6.8290   12.9100   19.0740   N 0  0  0  0  0  0  0  0  0  0  0  0
   -8.2760   12.6200   19.2050   C 0  0  0  0  0  0  0  0  0  0  0  0
   -8.5400   11.2660   19.8330   C 0  0  0  0  0  0  0  0  0  0  0  0
   -7.6610   11.0460   21.0500   C 0  0  0  0  0  0  0  0  0  0  0  0
   -7.0570   12.3550   21.5130   C 0  0  0  0  0  0  0  0  0  0  0  0
   -6.2230   13.0030   20.4130   C 0  0  0  0  0  0  0  0  0  0  0  0
 10  1  1  0  0  0  0
  2  1  2  0  0  0  0
  2  3  1  0  0  0  0
  1  6  1  0  0  0  0
  3  4  2  0  0  0  0
  6  9  1  0  0  0  0
  6  5  2  0  0  0  0
  8  7  2  0  0  0  0
  4  5  1  0  0  0  0
  4  7  1  0  0  0  0
  7 11  1  0  0  0  0
 11 12  1  0  0  0  0
 13 12  2  0  0  0  0
 13 14  1  0  0  0  0
 12 17  1  0  0  0  0
 18 14  1  0  0  0  0
 18 19  1  0  0  0  0
 14 15  2  0  0  0  0
 17 16  2  0  0  0  0
 19 21  1  0  0  0  0
 19 20  2  0  0  0  0
 15 16  1  0  0  0  0
 15 20  1  0  0  0  0
 21 22  1  0  0  0  0
 22 23  1  0  0  0  0
 22 27  1  0  0  0  0
 23 24  1  0  0  0  0
 24 25  1  0  0  0  0
 27 26  1  0  0  0  0
 25 26  1  0  0  0  0
M  END
>  <InstanceId>
6HPW_GKT_A_209

>  <ChemCompId>
GKT

>  <PdbId>
6HPW

>  <ChainId>
A

>  <ResidueNumber>
209

>  <InsertionCode>


>  <Model>
1

>  <AltIds>


>  <MissingHeavyAtoms>
0

>  <ObservedFormula>
C21 N4 O I

>  <Name>
3-iodanyl-4-methyl-~{N}-[2-(piperidin-1-ylmethyl)-3~{H}-benzimidazol-5-yl]benzamide

>  <SystematicName>
3-iodanyl-4-methyl-~{N}-[2-(piperidin-1-ylmethyl)-3~{H}-benzimidazol-5-yl]benzamide

>  <Synonyms>


>  <Type>
NON-POLYMER

>  <Formula>
C21 H23 I N4 O

>  <MolecularWeight>
474.338

>  <ModifiedDate>
2018-11-23

>  <Parent>


>  <OneLetterCode>


>  <SubcomponentList>


>  <AmbiguousFlag>
N

>  <InChI>
InChI=1S/C21H23IN4O/c1-14-5-6-15(11-17(14)22)21(27)23-16-7-8-18-19(12-16)25-20(24-18)13-26-9-3-2-4-10-26/h5-8,11-12H,2-4,9-10,13H2,1H3,(H,23,27)(H,24,25)

>  <InChIKey>
VMKBJIIRNPWSSI-UHFFFAOYSA-N

>  <SMILES>
Cc1ccc(cc1I)C(=O)Nc2ccc3c(c2)[nH]c(n3)CN4CCCCC4

$$$$
