1T32_OHH_A_901
  RCSB PDB08012015593D
Coordinates from PDB:1T32:A:901 Model:1 without hydrogens
 49 55  0  0  0  0            999 V2000
   12.2900   76.8260    5.0230   O 0  0  0  0  0  0  0  0  0  0  0  0
   10.0080   67.5470    6.5890   P 0  0  0  0  0  0  0  0  0  0  0  0
    8.4840   67.2520    6.8930   O 0  0  0  0  0  0  0  0  0  0  0  0
   10.3390   66.5300    5.5010   O 0  0  0  0  0  0  0  0  0  0  0  0
   10.8370   67.2750    7.7990   O 0  0  0  0  0  0  0  0  0  0  0  0
   10.4900   69.1160    5.9740   C 0  0  0  0  0  0  0  0  0  0  0  0
    8.4970   69.7310    4.7890   O 0  0  0  0  0  0  0  0  0  0  0  0
    9.6560   69.4210    4.7300   C 0  0  0  0  0  0  0  0  0  0  0  0
   13.4310   67.7340    1.5920   C 0  0  0  0  0  0  0  0  0  0  0  0
   14.0610   67.7070    0.2840   C 0  0  0  0  0  0  0  0  0  0  0  0
   13.4720   68.4660   -0.8420   C 0  0  0  0  0  0  0  0  0  0  0  0
   12.2600   69.2710   -0.7210   C 0  0  0  0  0  0  0  0  0  0  0  0
   11.5830   69.3240    0.5990   C 0  0  0  0  0  0  0  0  0  0  0  0
   12.1860   68.5200    1.8380   C 0  0  0  0  0  0  0  0  0  0  0  0
   11.5640   68.5460    3.1470   C 0  0  0  0  0  0  0  0  0  0  0  0
   10.3350   69.3490    3.3380   C 0  0  0  0  0  0  0  0  0  0  0  0
    9.7210   70.1350    2.1730   C 0  0  0  0  0  0  0  0  0  0  0  0
   10.3650   70.0990    0.8260   C 0  0  0  0  0  0  0  0  0  0  0  0
    7.4070   70.5060    1.7450   O 0  0  0  0  0  0  0  0  0  0  0  0
    8.4420   71.0440    2.1760   C 0  0  0  0  0  0  0  0  0  0  0  0
   10.3350   72.5980    9.0280   C 0  0  0  0  0  0  0  0  0  0  0  0
    9.1320   71.8380    8.8430   C 0  0  0  0  0  0  0  0  0  0  0  0
    9.0680   70.6840    7.8760   C 0  0  0  0  0  0  0  0  0  0  0  0
   10.2180   70.2350    7.0330   C 0  0  0  0  0  0  0  0  0  0  0  0
   11.5970   71.0600    7.1890   C 0  0  0  0  0  0  0  0  0  0  0  0
   11.5650   72.3060    8.2860   C 0  0  0  0  0  0  0  0  0  0  0  0
   12.7960   73.1330    8.5200   C 0  0  0  0  0  0  0  0  0  0  0  0
   14.0320   72.8690    7.7970   C 0  0  0  0  0  0  0  0  0  0  0  0
   14.1110   71.7530    6.7840   C 0  0  0  0  0  0  0  0  0  0  0  0
   12.9230   70.8980    6.5130   C 0  0  0  0  0  0  0  0  0  0  0  0
    8.5290   72.4060    2.6580   N 0  0  0  0  0  0  0  0  0  0  0  0
    7.3100   73.2940    2.6650   C 0  0  0  0  0  0  0  0  0  0  0  0
   12.2310   73.9170    2.7090   C 0  0  0  0  0  0  0  0  0  0  0  0
   11.9620   74.8410    3.9140   N 0  0  0  0  0  0  0  0  0  0  0  0
   11.1900   74.1620    5.0490   C 0  0  0  0  0  0  0  0  0  0  0  0
    9.7930   73.6660    4.4930   C 0  0  0  0  0  0  0  0  0  0  0  0
    9.9780   72.8410    3.1350   C 0  0  0  0  0  0  0  0  0  0  0  0
   10.8450   73.6000    2.0860   C 0  0  0  0  0  0  0  0  0  0  0  0
   12.4400   76.1780    3.9610   C 0  0  0  0  0  0  0  0  0  0  0  0
   15.2240   78.2560    1.9530   C 0  0  0  0  0  0  0  0  0  0  0  0
   14.4820   77.5740    3.0170   C 0  0  0  0  0  0  0  0  0  0  0  0
   13.1730   76.8880    2.7590   C 0  0  0  0  0  0  0  0  0  0  0  0
   12.6210   76.9100    1.3590   C 0  0  0  0  0  0  0  0  0  0  0  0
   13.3130   77.5590    0.2870   C 0  0  0  0  0  0  0  0  0  0  0  0
   14.6870   78.2730    0.5920   C 0  0  0  0  0  0  0  0  0  0  0  0
   15.3860   78.9230   -0.5060   C 0  0  0  0  0  0  0  0  0  0  0  0
   14.8020   78.9020   -1.8600   C 0  0  0  0  0  0  0  0  0  0  0  0
   13.5130   78.2410   -2.1440   C 0  0  0  0  0  0  0  0  0  0  0  0
   12.7730   77.5700   -1.0760   C 0  0  0  0  0  0  0  0  0  0  0  0
  1 39  2  0  0  0  0
  2  3  1  0  0  0  0
  2  4  2  0  0  0  0
  2  5  1  0  0  0  0
  2  6  1  0  0  0  0
  6  8  1  0  0  0  0
  6 24  1  0  0  0  0
  7  8  2  0  0  0  0
  8 16  1  0  0  0  0
  9 10  2  0  0  0  0
  9 14  1  0  0  0  0
 10 11  1  0  0  0  0
 11 12  2  0  0  0  0
 12 13  1  0  0  0  0
 13 14  2  0  0  0  0
 13 18  1  0  0  0  0
 14 15  1  0  0  0  0
 15 16  2  0  0  0  0
 16 17  1  0  0  0  0
 17 18  2  0  0  0  0
 17 20  1  0  0  0  0
 19 20  2  0  0  0  0
 20 31  1  0  0  0  0
 21 22  2  0  0  0  0
 21 26  1  0  0  0  0
 22 23  1  0  0  0  0
 23 24  2  0  0  0  0
 24 25  1  0  0  0  0
 25 26  2  0  0  0  0
 25 30  1  0  0  0  0
 26 27  1  0  0  0  0
 27 28  2  0  0  0  0
 28 29  1  0  0  0  0
 29 30  2  0  0  0  0
 31 32  1  0  0  0  0
 31 37  1  0  0  0  0
 33 34  1  0  0  0  0
 33 38  1  0  0  0  0
 34 35  1  0  0  0  0
 34 39  1  0  0  0  0
 35 36  1  0  0  0  0
 36 37  1  0  0  0  0
 37 38  1  0  0  0  0
 39 42  1  0  0  0  0
 40 41  2  0  0  0  0
 40 45  1  0  0  0  0
 41 42  1  0  0  0  0
 42 43  2  0  0  0  0
 43 44  1  0  0  0  0
 44 45  2  0  0  0  0
 44 49  1  0  0  0  0
 45 46  1  0  0  0  0
 46 47  2  0  0  0  0
 47 48  1  0  0  0  0
 48 49  2  0  0  0  0
M  END
>  <InstanceId>
1T32_OHH_A_901

>  <ChemCompId>
OHH

>  <PdbId>
1T32

>  <ChainId>
A

>  <ResidueNumber>
901

>  <InsertionCode>


>  <Model>
1

>  <AltIds>


>  <MissingHeavyAtoms>
0

>  <ObservedFormula>
C40 N2 O6 P

>  <Name>
2-[3-({METHYL[1-(2-NAPHTHOYL)PIPERIDIN-4-YL]AMINO}CARBONYL)-2-NAPHTHYL]-1-(1-NAPHTHYL)-2-OXOETHYLPHOSPHONIC ACID

>  <SystematicName>
[(1R)-2-[3-[methyl-(1-naphthalen-2-ylcarbonylpiperidin-4-yl)carbamoyl]naphthalen-2-yl]-1-naphthalen-1-yl-2-oxo-ethyl]phosphonic acid

>  <Synonyms>


>  <Type>
NON-POLYMER

>  <Formula>
C40 H35 N2 O6 P

>  <MolecularWeight>
670.689

>  <ModifiedDate>
2011-06-04

>  <Parent>


>  <OneLetterCode>


>  <SubcomponentList>


>  <AmbiguousFlag>
N

>  <InChI>
InChI=1S/C40H35N2O6P/c1-41(32-19-21-42(22-20-32)39(44)31-18-17-26-9-2-3-11-28(26)23-31)40(45)36-25-30-13-5-4-12-29(30)24-35(36)37(43)38(49(46,47)48)34-16-8-14-27-10-6-7-15-33(27)34/h2-18,23-25,32,38H,19-22H2,1H3,(H2,46,47,48)/t38-/m1/s1

>  <InChIKey>
XUJQPDQURBZEGJ-KXQOOQHDSA-N

>  <SMILES>
CN(C1CCN(CC1)C(=O)c2ccc3ccccc3c2)C(=O)c4cc5ccccc5cc4C(=O)[C@@H](c6cccc7c6cccc7)P(=O)(O)O

$$$$
