4B5W_PYR_A_1259
  RCSB PDB08012021113D
Coordinates from PDB:4B5W:A:1259 Model:1 without hydrogens
  6  5  0  0  0  0            999 V2000
   29.7360   45.8060   51.7160   C 0  0  0  0  0  0  0  0  0  0  0  0
   30.4490   45.7250   50.6380   O 0  0  0  0  0  0  0  0  0  0  0  0
   29.3210   44.7140   52.3050   O 0  0  0  0  0  0  0  0  0  0  0  0
   29.4000   47.0630   52.2300   C 0  0  0  0  0  0  0  0  0  0  0  0
   29.8110   48.1660   51.6260   O 0  0  0  0  0  0  0  0  0  0  0  0
   28.5740   47.0840   53.4670   C 0  0  0  0  0  0  0  0  0  0  0  0
  1  2  2  0  0  0  0
  1  3  1  0  0  0  0
  1  4  1  0  0  0  0
  4  5  2  0  0  0  0
  4  6  1  0  0  0  0
M  END
>  <InstanceId>
4B5W_PYR_A_1259

>  <ChemCompId>
PYR

>  <PdbId>
4B5W

>  <ChainId>
A

>  <ResidueNumber>
1259

>  <InsertionCode>


>  <Model>
1

>  <AltIds>


>  <MissingHeavyAtoms>
0

>  <ObservedFormula>
C3 O3

>  <Name>
PYRUVIC ACID

>  <SystematicName>
2-oxidanylidenepropanoic acid

>  <Synonyms>


>  <Type>
NON-POLYMER

>  <Formula>
C3 H4 O3

>  <MolecularWeight>
88.062

>  <ModifiedDate>
2017-11-15

>  <Parent>


>  <OneLetterCode>


>  <SubcomponentList>


>  <AmbiguousFlag>
N

>  <InChI>
InChI=1S/C3H4O3/c1-2(4)3(5)6/h1H3,(H,5,6)

>  <InChIKey>
LCTONWCANYUPML-UHFFFAOYSA-N

>  <SMILES>
CC(=O)C(=O)O

$$$$
