3T3C_017_A_201
  RCSB PDB08012020313D
Coordinates from PDB:3T3C:A:201 Model:1 without hydrogens
 38 41  0  0  0  0            999 V2000
    3.3050   -4.2660  -15.0220   N 0  0  0  0  0  0  0  0  0  0  0  0
    2.6160   -4.2360  -16.1970   C 0  0  0  0  0  0  0  0  0  0  0  0
    2.3110   -3.0130  -16.7860   C 0  0  0  0  0  0  0  0  0  0  0  0
    1.5900   -2.9700  -17.9810   C 0  0  0  0  0  0  0  0  0  0  0  0
    1.1690   -4.1540  -18.5870   C 0  0  0  0  0  0  0  0  0  0  0  0
    1.5020   -5.3820  -17.9940   C 0  0  0  0  0  0  0  0  0  0  0  0
    2.2040   -5.4310  -16.7920   C 0  0  0  0  0  0  0  0  0  0  0  0
    0.3150   -4.0970  -19.9710   S 0  0  0  0  0  0  0  0  0  0  0  0
    0.6080   -2.8440  -20.5850   O 0  0  0  0  0  0  0  0  0  0  0  0
    0.6330   -5.2220  -20.7970   O 0  0  0  0  0  0  0  0  0  0  0  0
   -1.3030   -4.1990  -19.6640   N 0  0  0  0  0  0  0  0  0  0  0  0
   -1.6920   -5.4440  -18.9770   C 0  0  0  0  0  0  0  0  0  0  0  0
   -3.1360   -5.8630  -19.2860   C 0  0  0  0  0  0  0  0  0  0  0  0
   -3.3380   -6.1830  -20.7700   C 0  0  0  0  0  0  0  0  0  0  0  0
   -3.4520   -7.0960  -18.4560   C 0  0  0  0  0  0  0  0  0  0  0  0
   -1.9040   -3.0010  -19.0250   C 0  0  0  0  0  0  0  0  0  0  0  0
   -2.9740   -2.4690  -20.0000   C 0  0  0  0  0  0  0  0  0  0  0  0
   -3.8070   -1.5360  -19.3160   O 0  0  0  0  0  0  0  0  0  0  0  0
   -2.4070   -1.9000  -21.3390   C 0  0  0  0  0  0  0  0  0  0  0  0
   -3.5550   -1.7210  -22.2370   N 0  0  0  0  0  0  0  0  0  0  0  0
   -3.8040   -2.5380  -23.2620   C 0  0  0  0  0  0  0  0  0  0  0  0
   -3.1420   -3.5230  -23.6000   O 0  0  0  0  0  0  0  0  0  0  0  0
   -4.9850   -2.1960  -24.0060   O 0  0  0  0  0  0  0  0  0  0  0  0
   -5.2090   -2.7480  -25.3070   C 0  0  0  0  0  0  0  0  0  0  0  0
   -6.7100   -2.9650  -25.3350   C 0  0  0  0  0  0  0  0  0  0  0  0
   -7.2140   -1.6480  -25.4850   O 0  0  0  0  0  0  0  0  0  0  0  0
   -6.3350   -0.9210  -26.3590   C 0  0  0  0  0  0  0  0  0  0  0  0
   -6.1010    0.3900  -25.8560   O 0  0  0  0  0  0  0  0  0  0  0  0
   -4.7370    0.5830  -25.4490   C 0  0  0  0  0  0  0  0  0  0  0  0
   -3.9560   -0.6000  -26.0190   C 0  0  0  0  0  0  0  0  0  0  0  0
   -5.0080   -1.6600  -26.3520   C 0  0  0  0  0  0  0  0  0  0  0  0
   -1.7110   -0.5290  -21.2690   C 0  0  0  0  0  0  0  0  0  0  0  0
   -1.7310    1.0070  -23.2960   C 0  0  0  0  0  0  0  0  0  0  0  0
   -1.3160    1.3780  -24.5850   C 0  0  0  0  0  0  0  0  0  0  0  0
   -0.3970    0.5930  -25.2800   C 0  0  0  0  0  0  0  0  0  0  0  0
    0.1170   -0.5570  -24.6730   C 0  0  0  0  0  0  0  0  0  0  0  0
   -0.2900   -0.9280  -23.3760   C 0  0  0  0  0  0  0  0  0  0  0  0
   -1.2240   -0.1400  -22.6780   C 0  0  0  0  0  0  0  0  0  0  0  0
  1  2  1  0  0  0  0
  2  3  2  0  0  0  0
  2  7  1  0  0  0  0
  3  4  1  0  0  0  0
  4  5  2  0  0  0  0
  5  6  1  0  0  0  0
  5  8  1  0  0  0  0
  6  7  2  0  0  0  0
  8  9  2  0  0  0  0
  8 10  2  0  0  0  0
  8 11  1  0  0  0  0
 11 12  1  0  0  0  0
 11 16  1  0  0  0  0
 12 13  1  0  0  0  0
 13 14  1  0  0  0  0
 13 15  1  0  0  0  0
 16 17  1  0  0  0  0
 17 18  1  0  0  0  0
 17 19  1  0  0  0  0
 19 20  1  0  0  0  0
 19 32  1  0  0  0  0
 20 21  1  0  0  0  0
 21 22  2  0  0  0  0
 21 23  1  0  0  0  0
 23 24  1  0  0  0  0
 24 25  1  0  0  0  0
 24 31  1  0  0  0  0
 25 26  1  0  0  0  0
 26 27  1  0  0  0  0
 27 28  1  0  0  0  0
 27 31  1  0  0  0  0
 28 29  1  0  0  0  0
 29 30  1  0  0  0  0
 30 31  1  0  0  0  0
 32 38  1  0  0  0  0
 33 34  2  0  0  0  0
 33 38  1  0  0  0  0
 34 35  1  0  0  0  0
 35 36  2  0  0  0  0
 36 37  1  0  0  0  0
 37 38  2  0  0  0  0
M  END
>  <InstanceId>
3T3C_017_A_201

>  <ChemCompId>
017

>  <PdbId>
3T3C

>  <ChainId>
A

>  <ResidueNumber>
201

>  <InsertionCode>


>  <Model>
1

>  <AltIds>


>  <MissingHeavyAtoms>
0

>  <ObservedFormula>
C27 N3 O7 S

>  <Name>
(3R,3AS,6AR)-HEXAHYDROFURO[2,3-B]FURAN-3-YL(1S,2R)-3-[[(4-AMINOPHENYL)SULFONYL](ISOBUTYL)AMINO]-1-BENZYL-2-HYDROXYPROPYLCARBAMATE

>  <SystematicName>
[(3R,3aS,6aR)-2,3,3a,4,5,6a-hexahydrofuro[2,3-b]furan-3-yl] N-[(2S,3R)-4-[(4-aminophenyl)sulfonyl-(2-methylpropyl)amino]-3-hydroxy-1-phenyl-butan-2-yl]carbamate

>  <Synonyms>
Darunavir; TMC114; UIC-94017

>  <Type>
NON-POLYMER

>  <Formula>
C27 H37 N3 O7 S

>  <MolecularWeight>
547.664

>  <ModifiedDate>
2020-05-22

>  <Parent>


>  <OneLetterCode>


>  <SubcomponentList>


>  <AmbiguousFlag>
N

>  <InChI>
InChI=1S/C27H37N3O7S/c1-18(2)15-30(38(33,34)21-10-8-20(28)9-11-21)16-24(31)23(14-19-6-4-3-5-7-19)29-27(32)37-25-17-36-26-22(25)12-13-35-26/h3-11,18,22-26,31H,12-17,28H2,1-2H3,(H,29,32)/t22-,23-,24+,25-,26+/m0/s1

>  <InChIKey>
CJBJHOAVZSMMDJ-HEXNFIEUSA-N

>  <SMILES>
CC(C)C[N@@](C[C@H]([C@H](Cc1ccccc1)NC(=O)O[C@H]2CO[C@@H]3[C@H]2CCO3)O)S(=O)(=O)c4ccc(cc4)N

$$$$
