4ZIP_G64_B_201
  RCSB PDB08022000383D
Coordinates from PDB:4ZIP:B:201 Model:1 without hydrogens
 49 52  0  0  0  0            999 V2000
   20.9210   27.7670   14.9020   C 0  0  0  0  0  0  0  0  0  0  0  0
   21.5260   28.9720   14.6210   O 0  0  0  0  0  0  0  0  0  0  0  0
   22.9020   29.0060   14.9760   C 0  0  0  0  0  0  0  0  0  0  0  0
   21.5450   26.6480   15.3930   C 0  0  0  0  0  0  0  0  0  0  0  0
   20.7790   25.5190   15.6580   C 0  0  0  0  0  0  0  0  0  0  0  0
   19.4140   25.4920   15.3900   C 0  0  0  0  0  0  0  0  0  0  0  0
   18.8220   26.5880   14.7940   C 0  0  0  0  0  0  0  0  0  0  0  0
   19.5650   27.7000   14.4970   C 0  0  0  0  0  0  0  0  0  0  0  0
   18.4640   24.0950   15.8240   S 0  0  0  0  0  0  0  0  0  0  0  0
   17.3720   23.9870   14.8900   O 0  0  0  0  0  0  0  0  0  0  0  0
   19.4000   22.9840   15.9680   O 0  0  0  0  0  0  0  0  0  0  0  0
   17.8040   24.3450   17.3230   N 0  0  0  0  0  0  0  0  0  0  0  0
   18.7410   24.6510   18.4030   C 0  0  0  0  0  0  0  0  0  0  0  0
   18.4300   23.9830   19.7280   C 0  0  0  0  0  0  0  0  0  0  0  0
   18.4230   22.4810   19.5770   C 0  0  0  0  0  0  0  0  0  0  0  0
   19.4420   24.4410   20.7980   C 0  0  0  0  0  0  0  0  0  0  0  0
   16.5020   25.0110   17.3930   C 0  0  0  0  0  0  0  0  0  0  0  0
   15.4060   24.0800   17.8810   C 0  0  0  0  0  0  0  0  0  0  0  0
   14.2330   24.8130   18.2200   O 0  0  0  0  0  0  0  0  0  0  0  0
   15.0420   22.9690   16.8900   C 0  0  0  0  0  0  0  0  0  0  0  0
   14.2070   21.9790   17.5660   N 0  0  0  0  0  0  0  0  0  0  0  0
   14.6550   20.8040   17.9850   C 0  0  0  0  0  0  0  0  0  0  0  0
   15.8730   20.4860   18.0020   O 0  0  0  0  0  0  0  0  0  0  0  0
   14.2940   23.4600   15.6530   C 0  0  0  0  0  0  0  0  0  0  0  0
   12.6580   21.7750   14.6860   C 0  0  0  0  0  0  0  0  0  0  0  0
   12.4220   20.6160   13.9250   C 0  0  0  0  0  0  0  0  0  0  0  0
   13.4000   19.9540   13.2520   C 0  0  0  0  0  0  0  0  0  0  0  0
   14.6910   20.4930   13.2970   C 0  0  0  0  0  0  0  0  0  0  0  0
   14.9820   21.6250   14.0230   C 0  0  0  0  0  0  0  0  0  0  0  0
   13.9650   22.2890   14.7400   C 0  0  0  0  0  0  0  0  0  0  0  0
   13.6020   19.8380   18.5020   C 0  0  0  0  0  0  0  0  0  0  0  0
   13.8230   19.1930   19.7140   C 0  0  0  0  0  0  0  0  0  0  0  0
   12.8350   18.3100   20.2000   C 0  0  0  0  0  0  0  0  0  0  0  0
   11.6820   18.1190   19.4710   C 0  0  0  0  0  0  0  0  0  0  0  0
   11.5260   18.7240   18.2290   C 0  0  0  0  0  0  0  0  0  0  0  0
   12.4550   19.6420   17.7680   C 0  0  0  0  0  0  0  0  0  0  0  0
   13.1010   17.6140   21.5320   C 0  0  0  0  0  0  0  0  0  0  0  0
   10.2510   18.5540   17.4140   C 0  0  0  0  0  0  0  0  0  0  0  0
    9.2280   19.0070   17.9090   O 0  0  0  0  0  0  0  0  0  0  0  0
   10.2330   17.9860   16.2330   N 0  0  0  0  0  0  0  0  0  0  0  0
   11.4390   17.3370   15.6550   C 0  0  0  0  0  0  0  0  0  0  0  0
    9.0290   18.0590   15.3290   C 0  0  0  0  0  0  0  0  0  0  0  0
    9.2550   18.4960   13.8790   C 0  0  0  0  0  0  0  0  0  0  0  0
    9.7270   17.6540   12.9240   N 0  0  0  0  0  0  0  0  0  0  0  0
    9.7770   18.2890   11.7840   C 0  0  0  0  0  0  0  0  0  0  0  0
    9.4470   19.5920   11.9610   O 0  0  0  0  0  0  0  0  0  0  0  0
    9.1650   19.7290   13.3030   C 0  0  0  0  0  0  0  0  0  0  0  0
    8.6080   21.0600   13.7820   C 0  0  0  0  0  0  0  0  0  0  0  0
   10.3220   17.7980   10.4570   C 0  0  0  0  0  0  0  0  0  0  0  0
 49 45  1  0  0  0  0
 45 46  1  0  0  0  0
 45 44  2  0  0  0  0
 46 47  1  0  0  0  0
 44 43  1  0  0  0  0
 27 28  2  0  0  0  0
 27 26  1  0  0  0  0
 28 29  1  0  0  0  0
 47 48  1  0  0  0  0
 47 43  2  0  0  0  0
 43 42  1  0  0  0  0
 26 25  2  0  0  0  0
 29 30  2  0  0  0  0
  8  7  2  0  0  0  0
  8  1  1  0  0  0  0
  2  1  1  0  0  0  0
  2  3  1  0  0  0  0
 25 30  1  0  0  0  0
 30 24  1  0  0  0  0
  7  6  1  0  0  0  0
 10  9  2  0  0  0  0
  1  4  2  0  0  0  0
 42 40  1  0  0  0  0
  6  5  2  0  0  0  0
  6  9  1  0  0  0  0
  4  5  1  0  0  0  0
 24 20  1  0  0  0  0
 41 40  1  0  0  0  0
  9 11  2  0  0  0  0
  9 12  1  0  0  0  0
 40 38  1  0  0  0  0
 20 21  1  0  0  0  0
 20 18  1  0  0  0  0
 12 17  1  0  0  0  0
 12 13  1  0  0  0  0
 17 18  1  0  0  0  0
 38 39  2  0  0  0  0
 38 35  1  0  0  0  0
 21 22  1  0  0  0  0
 36 35  2  0  0  0  0
 36 31  1  0  0  0  0
 18 19  1  0  0  0  0
 22 23  2  0  0  0  0
 22 31  1  0  0  0  0
 35 34  1  0  0  0  0
 13 14  1  0  0  0  0
 31 32  2  0  0  0  0
 34 33  2  0  0  0  0
 15 14  1  0  0  0  0
 32 33  1  0  0  0  0
 14 16  1  0  0  0  0
 33 37  1  0  0  0  0
M  END
>  <InstanceId>
4ZIP_G64_B_201

>  <ChemCompId>
G64

>  <PdbId>
4ZIP

>  <ChainId>
B

>  <ResidueNumber>
201

>  <InsertionCode>


>  <Model>
1

>  <AltIds>


>  <MissingHeavyAtoms>
0

>  <ObservedFormula>
C37 N4 O7 S

>  <Name>
N-[(2,5-dimethyl-1,3-oxazol-4-yl)methyl]-N'-[(2S,3R)-3-hydroxy-4-{[(4-methoxyphenyl)sulfonyl](2-methylpropyl)amino}-1-phenylbutan-2-yl]-N,5-dimethylbenzene-1,3-dicarboxamide

>  <SystematicName>
N1-[(2,5-dimethyl-1,3-oxazol-4-yl)methyl]-N3-[(2S,3R)-4-[(4-methoxyphenyl)sulfonyl-(2-methylpropyl)amino]-3-oxidanyl-1-phenyl-butan-2-yl]-N1,5-dimethyl-benzene-1,3-dicarboxamide

>  <Synonyms>


>  <Type>
NON-POLYMER

>  <Formula>
C37 H46 N4 O7 S

>  <MolecularWeight>
690.849

>  <ModifiedDate>
2015-07-10

>  <Parent>


>  <OneLetterCode>


>  <SubcomponentList>


>  <AmbiguousFlag>
N

>  <InChI>
InChI=1S/C37H46N4O7S/c1-24(2)21-41(49(45,46)32-15-13-31(47-7)14-16-32)23-35(42)33(19-28-11-9-8-10-12-28)39-36(43)29-17-25(3)18-30(20-29)37(44)40(6)22-34-26(4)48-27(5)38-34/h8-18,20,24,33,35,42H,19,21-23H2,1-7H3,(H,39,43)/t33-,35+/m0/s1

>  <InChIKey>
VYTQZAGDUBREEP-QWOOXDRHSA-N

>  <SMILES>
Cc1cc(cc(c1)C(=O)N(C)Cc2c(oc(n2)C)C)C(=O)N[C@@H](Cc3ccccc3)[C@@H](CN(CC(C)C)S(=O)(=O)c4ccc(cc4)OC)O

$$$$
