1DHJ_MTX_A_161
  RCSB PDB08012014453D
Coordinates from PDB:1DHJ:A:161 Model:1 without hydrogens
 33 35  0  0  0  0            999 V2000
   22.9090   58.5070   24.1050   N 0  0  0  0  0  0  0  0  0  0  0  0
   23.4710   57.9410   23.0370   C 0  0  0  0  0  0  0  0  0  0  0  0
   24.7360   57.8430   22.9050   N 0  0  0  0  0  0  0  0  0  0  0  0
   22.6530   57.5060   22.0330   N 0  0  0  0  0  0  0  0  0  0  0  0
   21.3080   57.5940   21.8740   C 0  0  0  0  0  0  0  0  0  0  0  0
   20.6520   57.1140   20.8360   N 0  0  0  0  0  0  0  0  0  0  0  0
   20.7310   58.1850   23.1450   C 0  0  0  0  0  0  0  0  0  0  0  0
   19.3680   58.3520   23.1590   N 0  0  0  0  0  0  0  0  0  0  0  0
   18.8690   58.9180   24.2650   C 0  0  0  0  0  0  0  0  0  0  0  0
   19.7480   59.3530   25.3090   C 0  0  0  0  0  0  0  0  0  0  0  0
   21.0610   59.2410   25.2970   N 0  0  0  0  0  0  0  0  0  0  0  0
   21.5090   58.6140   24.1620   C 0  0  0  0  0  0  0  0  0  0  0  0
   17.4240   59.0540   24.1720   C 0  0  0  0  0  0  0  0  0  0  0  0
   16.9490   59.8970   25.3460   N 0  0  0  0  0  0  0  0  0  0  0  0
   16.0530   59.1920   26.3020   C 0  0  0  0  0  0  0  0  0  0  0  0
   17.7920   64.0770   25.5730   C 0  0  0  0  0  0  0  0  0  0  0  0
   17.0180   63.4150   26.5710   C 0  0  0  0  0  0  0  0  0  0  0  0
   16.8030   62.0470   26.4640   C 0  0  0  0  0  0  0  0  0  0  0  0
   17.3280   61.2760   25.3660   C 0  0  0  0  0  0  0  0  0  0  0  0
   18.0490   61.8880   24.3660   C 0  0  0  0  0  0  0  0  0  0  0  0
   18.3040   63.2860   24.5050   C 0  0  0  0  0  0  0  0  0  0  0  0
   18.0510   65.4930   25.6600   C 0  0  0  0  0  0  0  0  0  0  0  0
   17.3600   66.2300   26.3580   O 0  0  0  0  0  0  0  0  0  0  0  0
   19.0580   65.9740   24.9460   N 0  0  0  0  0  0  0  0  0  0  0  0
   19.4720   67.4260   24.9410   C 0  0  0  0  0  0  0  0  0  0  0  0
   19.8480   67.5140   23.4540   C 0  0  0  0  0  0  0  0  0  0  0  0
   20.1080   66.4850   22.7220   O 0  0  0  0  0  0  0  0  0  0  0  0
   19.7830   68.6810   23.0240   O 0  0  0  0  0  0  0  0  0  0  0  0
   20.8290   67.5980   25.7360   C 0  0  0  0  0  0  0  0  0  0  0  0
   20.9990   67.9160   27.3090   C 0  0  0  0  0  0  0  0  0  0  0  0
   19.8800   68.8820   27.7450   C 0  0  0  0  0  0  0  0  0  0  0  0
   19.0450   68.2960   28.5350   O 0  0  0  0  0  0  0  0  0  0  0  0
   19.8350   70.0590   27.2650   O 0  0  0  0  0  0  0  0  0  0  0  0
  1  2  2  0  0  0  0
  1 12  1  0  0  0  0
  2  3  1  0  0  0  0
  2  4  1  0  0  0  0
  4  5  2  0  0  0  0
  5  6  1  0  0  0  0
  5  7  1  0  0  0  0
  7  8  1  0  0  0  0
  7 12  2  0  0  0  0
  8  9  2  0  0  0  0
  9 10  1  0  0  0  0
  9 13  1  0  0  0  0
 10 11  2  0  0  0  0
 11 12  1  0  0  0  0
 13 14  1  0  0  0  0
 14 15  1  0  0  0  0
 14 19  1  0  0  0  0
 16 17  2  0  0  0  0
 16 21  1  0  0  0  0
 16 22  1  0  0  0  0
 17 18  1  0  0  0  0
 18 19  2  0  0  0  0
 19 20  1  0  0  0  0
 20 21  2  0  0  0  0
 22 23  2  0  0  0  0
 22 24  1  0  0  0  0
 24 25  1  0  0  0  0
 25 26  1  0  0  0  0
 25 29  1  0  0  0  0
 26 27  2  0  0  0  0
 26 28  1  0  0  0  0
 29 30  1  0  0  0  0
 30 31  1  0  0  0  0
 31 32  2  0  0  0  0
 31 33  1  0  0  0  0
M  END
>  <InstanceId>
1DHJ_MTX_A_161

>  <ChemCompId>
MTX

>  <PdbId>
1DHJ

>  <ChainId>
A

>  <ResidueNumber>
161

>  <InsertionCode>


>  <Model>
1

>  <AltIds>


>  <MissingHeavyAtoms>
0

>  <ObservedFormula>
C20 N8 O5

>  <Name>
METHOTREXATE

>  <SystematicName>
(2S)-2-[[4-[(2,4-diaminopteridin-6-yl)methyl-methyl-amino]phenyl]carbonylamino]pentanedioic acid

>  <Synonyms>


>  <Type>
NON-POLYMER

>  <Formula>
C20 H22 N8 O5

>  <MolecularWeight>
454.439

>  <ModifiedDate>
2011-06-04

>  <Parent>


>  <OneLetterCode>


>  <SubcomponentList>


>  <AmbiguousFlag>
N

>  <InChI>
InChI=1S/C20H22N8O5/c1-28(9-11-8-23-17-15(24-11)16(21)26-20(22)27-17)12-4-2-10(3-5-12)18(31)25-13(19(32)33)6-7-14(29)30/h2-5,8,13H,6-7,9H2,1H3,(H,25,31)(H,29,30)(H,32,33)(H4,21,22,23,26,27)/t13-/m0/s1

>  <InChIKey>
FBOZXECLQNJBKD-ZDUSSCGKSA-N

>  <SMILES>
CN(Cc1cnc2c(n1)c(nc(n2)N)N)c3ccc(cc3)C(=O)N[C@@H](CCC(=O)O)C(=O)O

$$$$
