4YYT_S2O_A_303
  RCSB PDB08022000333D
Coordinates from PDB:4YYT:A:303 Model:1 without hydrogens
 12 12  0  0  0  0            999 V2000
   13.2990    2.2340   83.7820   O 0  0  0  0  0  0  0  0  0  0  0  0
   13.8360    0.9960   84.2560   S 0  0  0  0  0  0  0  0  0  0  0  0
   12.9360   -0.0870   84.5310   O 0  0  0  0  0  0  0  0  0  0  0  0
   14.6320    1.3050   85.6100   N 0  0  0  0  0  0  0  0  0  0  0  0
   14.9990    0.4310   83.0550   C 0  0  0  0  0  0  0  0  0  0  0  0
   15.6240    1.3420   82.2220   C 0  0  0  0  0  0  0  0  0  0  0  0
   15.2930   -0.9170   82.9700   C 0  0  0  0  0  0  0  0  0  0  0  0
   16.2220   -1.3490   82.0410   C 0  0  0  0  0  0  0  0  0  0  0  0
   16.8610   -0.4560   81.1960   C 0  0  0  0  0  0  0  0  0  0  0  0
   16.5500    0.8910   81.3000   C 0  0  0  0  0  0  0  0  0  0  0  0
   17.8700   -0.9390   80.1840   C 0  0  0  0  0  0  0  0  0  0  0  0
   17.1050   -1.6050   79.0580   C 0  0  0  0  0  0  0  0  0  0  0  0
 12 11  1  0  0  0  0
 11  9  1  0  0  0  0
  9 10  2  0  0  0  0
  9  8  1  0  0  0  0
 10  6  1  0  0  0  0
  8  7  2  0  0  0  0
  6  5  2  0  0  0  0
  7  5  1  0  0  0  0
  5  2  1  0  0  0  0
  4  2  1  0  0  0  0
  1  2  2  0  0  0  0
  2  3  2  0  0  0  0
M  END
>  <InstanceId>
4YYT_S2O_A_303

>  <ChemCompId>
S2O

>  <PdbId>
4YYT

>  <ChainId>
A

>  <ResidueNumber>
303

>  <InsertionCode>


>  <Model>
1

>  <AltIds>


>  <MissingHeavyAtoms>
1

>  <ObservedFormula>
C8 N O2 S

>  <Name>
4-(2-hydroxyethyl)benzenesulfonamide

>  <SystematicName>
4-(2-hydroxyethyl)benzenesulfonamide

>  <Synonyms>


>  <Type>
NON-POLYMER

>  <Formula>
C8 H11 N O3 S

>  <MolecularWeight>
201.243

>  <ModifiedDate>
2016-01-29

>  <Parent>


>  <OneLetterCode>


>  <SubcomponentList>


>  <AmbiguousFlag>
N

>  <InChI>
InChI=1S/C8H11NO3S/c9-13(11,12)8-3-1-7(2-4-8)5-6-10/h1-4,10H,5-6H2,(H2,9,11,12)

>  <InChIKey>
RYKHXKKLCRPAJP-UHFFFAOYSA-N

>  <SMILES>
c1cc(ccc1CCO)S(=O)(=O)N

$$$$
