3HZM_KDO_B_303
  RCSB PDB08012019163D
Coordinates from PDB:3HZM:B:303 Model:1 without hydrogens
 16 16  0  0  0  0            999 V2000
   -9.4510    0.5050    0.5850   C 0  0  0  0  0  0  0  0  0  0  0  0
  -10.4370    0.9080   -0.0920   O 0  0  0  0  0  0  0  0  0  0  0  0
   -9.4060   -0.5830    1.2020   O 0  0  0  0  0  0  0  0  0  0  0  0
   -8.2480    1.4380    0.7670   C 0  0  0  0  0  0  0  0  0  0  0  0
   -7.4100    0.9080    1.8170   O 0  0  0  0  0  0  0  0  0  0  0  0
   -7.4990    1.6220   -0.5710   C 0  0  0  0  0  0  0  0  0  0  0  0
   -6.3150    2.5770   -0.3650   C 0  0  0  0  0  0  0  0  0  0  0  0
   -5.6680    2.7720   -1.6420   O 0  0  0  0  0  0  0  0  0  0  0  0
   -6.8830    3.9120    0.1370   C 0  0  0  0  0  0  0  0  0  0  0  0
   -7.7830    4.4090   -0.8400   O 0  0  0  0  0  0  0  0  0  0  0  0
   -7.6670    3.6420    1.4190   C 0  0  0  0  0  0  0  0  0  0  0  0
   -8.7250    2.7220    1.2140   O 0  0  0  0  0  0  0  0  0  0  0  0
   -8.3270    4.9470    1.9160   C 0  0  0  0  0  0  0  0  0  0  0  0
   -7.3490    5.9720    2.1290   O 0  0  0  0  0  0  0  0  0  0  0  0
   -9.0660    4.6250    3.2310   C 0  0  0  0  0  0  0  0  0  0  0  0
   -9.7980    5.7730    3.7140   O 0  0  0  0  0  0  0  0  0  0  0  0
  1  2  2  0  0  0  0
  1  3  1  0  0  0  0
  1  4  1  0  0  0  0
  4  5  1  0  0  0  0
  4  6  1  0  0  0  0
  4 12  1  0  0  0  0
  6  7  1  0  0  0  0
  7  8  1  0  0  0  0
  7  9  1  0  0  0  0
  9 10  1  0  0  0  0
  9 11  1  0  0  0  0
 11 12  1  0  0  0  0
 11 13  1  0  0  0  0
 13 14  1  0  0  0  0
 13 15  1  0  0  0  0
 15 16  1  0  0  0  0
M  END
>  <InstanceId>
3HZM_KDO_B_303

>  <ChemCompId>
KDO

>  <PdbId>
3HZM

>  <ChainId>
B

>  <ResidueNumber>
303

>  <InsertionCode>


>  <Model>
1

>  <AltIds>


>  <MissingHeavyAtoms>
0

>  <ObservedFormula>
C8 O8

>  <Name>
3-deoxy-alpha-D-manno-oct-2-ulopyranosonic acid

>  <SystematicName>
(2R,4R,5R,6R)-6-[(1R)-1,2-dihydroxyethyl]-2,4,5-trihydroxy-oxane-2-carboxylic acid

>  <Synonyms>
3-deoxy-d-manno-oct-2-ulopyranosonic acid; 2-keto-3-deoxy-D-mannooctanoic acid; 3-deoxy-alpha-D-manno-oct-2-ulosonic acid; 3-deoxy-D-manno-oct-2-ulosonic acid; 3-deoxy-manno-oct-2-ulosonic acid

>  <Type>
D-saccharide, alpha linking

>  <Formula>
C8 H14 O8

>  <MolecularWeight>
238.192

>  <ModifiedDate>
2020-07-17

>  <Parent>


>  <OneLetterCode>


>  <SubcomponentList>


>  <AmbiguousFlag>
N

>  <InChI>
InChI=1S/C8H14O8/c9-2-4(11)6-5(12)3(10)1-8(15,16-6)7(13)14/h3-6,9-12,15H,1-2H2,(H,13,14)/t3-,4-,5-,6-,8-/m1/s1

>  <InChIKey>
NNLZBVFSCVTSLA-HXUQBWEZSA-N

>  <SMILES>
C1[C@H]([C@H]([C@H](O[C@]1(C(=O)O)O)[C@@H](CO)O)O)O

$$$$
