4L9I_8PR_A_601
  RCSB PDB08012022213D
Coordinates from PDB:4L9I:A:601 Model:1 without hydrogens
 24 27  0  0  0  0            999 V2000
  -14.8360  -45.2580   21.2530   F 0  0  0  0  0  0  0  0  0  0  0  0
  -16.9900  -46.2430   21.2980   C 0  0  0  0  0  0  0  0  0  0  0  0
  -16.1180  -45.2200   23.2730   C 0  0  0  0  0  0  0  0  0  0  0  0
  -21.2160  -42.2720   25.9540   C 0  0  0  0  0  0  0  0  0  0  0  0
  -18.1630  -46.5760   21.9760   C 0  0  0  0  0  0  0  0  0  0  0  0
  -17.2970  -45.5520   23.9570   C 0  0  0  0  0  0  0  0  0  0  0  0
  -21.5960  -40.9790   26.2840   C 0  0  0  0  0  0  0  0  0  0  0  0
  -20.9070  -41.6510   23.6210   C 0  0  0  0  0  0  0  0  0  0  0  0
  -21.0480  -48.4380   24.9120   C 0  0  0  0  0  0  0  0  0  0  0  0
  -19.7400  -48.0860   24.2120   C 0  0  0  0  0  0  0  0  0  0  0  0
  -22.1240  -46.3600   23.9820   C 0  0  0  0  0  0  0  0  0  0  0  0
  -21.9470  -38.2180   23.9560   C 0  0  0  0  0  0  0  0  0  0  0  0
  -20.7500  -44.5080   23.0880   C 0  0  0  0  0  0  0  0  0  0  0  0
  -22.1780  -47.7730   24.2900   N 0  0  0  0  0  0  0  0  0  0  0  0
  -20.5170  -43.9000   24.3590   O 0  0  0  0  0  0  0  0  0  0  0  0
  -21.9540  -38.7220   25.3080   O 0  0  0  0  0  0  0  0  0  0  0  0
  -21.4150  -39.2750   23.1790   O 0  0  0  0  0  0  0  0  0  0  0  0
  -15.9610  -45.5660   21.9360   C 0  0  0  0  0  0  0  0  0  0  0  0
  -20.8760  -42.6090   24.6310   C 0  0  0  0  0  0  0  0  0  0  0  0
  -18.3340  -46.2400   23.3160   C 0  0  0  0  0  0  0  0  0  0  0  0
  -21.6100  -40.0400   25.2600   C 0  0  0  0  0  0  0  0  0  0  0  0
  -21.2830  -40.3680   23.9760   C 0  0  0  0  0  0  0  0  0  0  0  0
  -20.8110  -46.0170   23.2810   C 0  0  0  0  0  0  0  0  0  0  0  0
  -19.5960  -46.5780   24.0380   C 0  0  0  0  0  0  0  0  0  0  0  0
  1 18  1  0  0  0  0
 18  2  2  0  0  0  0
  2  5  1  0  0  0  0
 18  3  1  0  0  0  0
  3  6  2  0  0  0  0
 19  4  2  0  0  0  0
  4  7  1  0  0  0  0
  5 20  2  0  0  0  0
  6 20  1  0  0  0  0
 21  7  2  0  0  0  0
  8 19  1  0  0  0  0
  8 22  2  0  0  0  0
 10  9  1  0  0  0  0
  9 14  1  0  0  0  0
 10 24  1  0  0  0  0
 23 11  1  0  0  0  0
 14 11  1  0  0  0  0
 17 12  1  0  0  0  0
 16 12  1  0  0  0  0
 23 13  1  0  0  0  0
 13 15  1  0  0  0  0
 15 19  1  0  0  0  0
 21 16  1  0  0  0  0
 22 17  1  0  0  0  0
 20 24  1  0  0  0  0
 22 21  1  0  0  0  0
 24 23  1  0  0  0  0
M  END
>  <InstanceId>
4L9I_8PR_A_601

>  <ChemCompId>
8PR

>  <PdbId>
4L9I

>  <ChainId>
A

>  <ResidueNumber>
601

>  <InsertionCode>


>  <Model>
1

>  <AltIds>


>  <MissingHeavyAtoms>
0

>  <ObservedFormula>
C19 N O3 F

>  <Name>
Paroxetine

>  <SystematicName>
(3S,4R)-3-(1,3-benzodioxol-5-yloxymethyl)-4-(4-fluorophenyl)piperidine

>  <Synonyms>
(3S,4R)-3-[(1,3-benzodioxol-5-yloxy)methyl]-4-(4-fluorophenyl)piperidine

>  <Type>
NON-POLYMER

>  <Formula>
C19 H20 F N O3

>  <MolecularWeight>
329.365

>  <ModifiedDate>
2020-06-17

>  <Parent>


>  <OneLetterCode>


>  <SubcomponentList>


>  <AmbiguousFlag>
N

>  <InChI>
InChI=1S/C19H20FNO3/c20-15-3-1-13(2-4-15)17-7-8-21-10-14(17)11-22-16-5-6-18-19(9-16)24-12-23-18/h1-6,9,14,17,21H,7-8,10-12H2/t14-,17-/m0/s1

>  <InChIKey>
AHOUBRCZNHFOSL-YOEHRIQHSA-N

>  <SMILES>
c1cc(ccc1[C@@H]2CCNC[C@H]2COc3ccc4c(c3)OCO4)F

$$$$
