1N4H_REA_A_500
  RCSB PDB08012015303D
Coordinates from PDB:1N4H:A:500 Model:1 without hydrogens
 22 22  0  0  0  0            999 V2000
   22.6760   32.3860    7.5850   C 0  0  0  0  0  0  0  0  0  0  0  0
   21.9060   33.5740    6.8750   C 0  0  0  0  0  0  0  0  0  0  0  0
   21.6370   33.4550    5.3740   C 0  0  0  0  0  0  0  0  0  0  0  0
   22.7900   32.9260    4.5060   C 0  0  0  0  0  0  0  0  0  0  0  0
   23.8910   32.0960    5.2550   C 0  0  0  0  0  0  0  0  0  0  0  0
   23.8620   31.8350    6.6380   C 0  0  0  0  0  0  0  0  0  0  0  0
   24.9190   31.0450    7.3340   C 0  0  0  0  0  0  0  0  0  0  0  0
   25.0460   29.7100    7.5730   C 0  0  0  0  0  0  0  0  0  0  0  0
   26.0800   29.0940    8.3970   C 0  0  0  0  0  0  0  0  0  0  0  0
   26.0660   27.7250    8.5310   C 0  0  0  0  0  0  0  0  0  0  0  0
   27.0510   27.0180    9.3290   C 0  0  0  0  0  0  0  0  0  0  0  0
   27.0700   25.6940    9.4400   C 0  0  0  0  0  0  0  0  0  0  0  0
   28.0570   24.9770   10.2420   C 0  0  0  0  0  0  0  0  0  0  0  0
   27.9510   23.6260   10.2240   C 0  0  0  0  0  0  0  0  0  0  0  0
   28.7050   22.5640   10.8700   C 0  0  0  0  0  0  0  0  0  0  0  0
   21.6500   31.2540    7.8880   C 0  0  0  0  0  0  0  0  0  0  0  0
   23.2350   32.9900    8.9100   C 0  0  0  0  0  0  0  0  0  0  0  0
   24.9480   31.6510    4.2340   C 0  0  0  0  0  0  0  0  0  0  0  0
   27.1570   29.9910    9.0840   C 0  0  0  0  0  0  0  0  0  0  0  0
   29.1590   25.7760   11.0430   C 0  0  0  0  0  0  0  0  0  0  0  0
   28.3770   21.4240   10.6260   O 0  0  0  0  0  0  0  0  0  0  0  0
   29.6410   22.7790   11.6280   O 0  0  0  0  0  0  0  0  0  0  0  0
  1  2  1  0  0  0  0
  1  6  1  0  0  0  0
  1 16  1  0  0  0  0
  1 17  1  0  0  0  0
  2  3  1  0  0  0  0
  3  4  1  0  0  0  0
  4  5  1  0  0  0  0
  5  6  2  0  0  0  0
  5 18  1  0  0  0  0
  6  7  1  0  0  0  0
  7  8  2  0  0  0  0
  8  9  1  0  0  0  0
  9 10  2  0  0  0  0
  9 19  1  0  0  0  0
 10 11  1  0  0  0  0
 11 12  2  0  0  0  0
 12 13  1  0  0  0  0
 13 14  2  0  0  0  0
 13 20  1  0  0  0  0
 14 15  1  0  0  0  0
 15 21  2  0  0  0  0
 15 22  1  0  0  0  0
M  END
>  <InstanceId>
1N4H_REA_A_500

>  <ChemCompId>
REA

>  <PdbId>
1N4H

>  <ChainId>
A

>  <ResidueNumber>
500

>  <InsertionCode>


>  <Model>
1

>  <AltIds>


>  <MissingHeavyAtoms>
0

>  <ObservedFormula>
C20 O2

>  <Name>
RETINOIC ACID

>  <SystematicName>
(2E,4E,6E,8E)-3,7-dimethyl-9-(2,6,6-trimethylcyclohexen-1-yl)nona-2,4,6,8-tetraenoic acid

>  <Synonyms>


>  <Type>
NON-POLYMER

>  <Formula>
C20 H28 O2

>  <MolecularWeight>
300.435

>  <ModifiedDate>
2016-10-18

>  <Parent>


>  <OneLetterCode>


>  <SubcomponentList>


>  <AmbiguousFlag>
N

>  <InChI>
InChI=1S/C20H28O2/c1-15(8-6-9-16(2)14-19(21)22)11-12-18-17(3)10-7-13-20(18,4)5/h6,8-9,11-12,14H,7,10,13H2,1-5H3,(H,21,22)/b9-6+,12-11+,15-8+,16-14+

>  <InChIKey>
SHGAZHPCJJPHSC-YCNIQYBTSA-N

>  <SMILES>
CC1=C(C(CCC1)(C)C)/C=C/C(=C/C=C/C(=C/C(=O)O)/C)/C

$$$$
