4NJA_2M9_H_501
  RCSB PDB08012022383D
Coordinates from PDB:4NJA:H:501 Model:1 without hydrogens
 30 33  0  0  0  0            999 V2000
  -30.5000  -18.9310   14.1040   O 0  0  0  0  0  0  0  0  0  0  0  0
  -31.0140  -17.5570   13.7240   S 0  0  0  0  0  0  0  0  0  0  0  0
  -31.7950  -17.7010   12.4750   O 0  0  0  0  0  0  0  0  0  0  0  0
  -29.7530  -16.7600   13.5620   O 0  0  0  0  0  0  0  0  0  0  0  0
  -31.9720  -16.9470   14.8790   C 0  0  0  0  0  0  0  0  0  0  0  0
  -31.6240  -15.8110   15.6010   C 0  0  0  0  0  0  0  0  0  0  0  0
  -32.4550  -15.2710   16.6020   C 0  0  0  0  0  0  0  0  0  0  0  0
  -31.9980  -13.9420   17.4300   S 0  0  0  0  0  0  0  0  0  0  0  0
  -30.6120  -13.6370   17.1460   O 0  0  0  0  0  0  0  0  0  0  0  0
  -32.9930  -12.8970   17.1290   O 0  0  0  0  0  0  0  0  0  0  0  0
  -32.0850  -14.1100   18.8530   O 0  0  0  0  0  0  0  0  0  0  0  0
  -33.6930  -15.9020   16.8560   C 0  0  0  0  0  0  0  0  0  0  0  0
  -34.5590  -15.4160   17.8640   C 0  0  0  0  0  0  0  0  0  0  0  0
  -35.7720  -16.0330   18.1560   C 0  0  0  0  0  0  0  0  0  0  0  0
  -33.1760  -17.5650   15.1540   C 0  0  0  0  0  0  0  0  0  0  0  0
  -34.0410  -17.0580   16.1440   C 0  0  0  0  0  0  0  0  0  0  0  0
  -35.2550  -17.6850   16.4270   C 0  0  0  0  0  0  0  0  0  0  0  0
  -36.1200  -17.1840   17.4390   C 0  0  0  0  0  0  0  0  0  0  0  0
  -33.5340  -18.6930   14.4090   C 0  0  0  0  0  0  0  0  0  0  0  0
  -34.7860  -19.2990   14.6740   C 0  0  0  0  0  0  0  0  0  0  0  0
  -35.6230  -18.8290   15.6900   C 0  0  0  0  0  0  0  0  0  0  0  0
  -36.8490  -19.4790   15.9700   C 0  0  0  0  0  0  0  0  0  0  0  0
  -37.2330  -20.6290   15.2950   O 0  0  0  0  0  0  0  0  0  0  0  0
  -38.5730  -21.1380   15.3740   C 0  0  0  0  0  0  0  0  0  0  0  0
  -37.6910  -18.9740   16.9690   C 0  0  0  0  0  0  0  0  0  0  0  0
  -37.3490  -17.8290   17.7100   C 0  0  0  0  0  0  0  0  0  0  0  0
  -38.3950  -17.3660   18.8890   S 0  0  0  0  0  0  0  0  0  0  0  0
  -37.7320  -17.5070   20.2070   O 0  0  0  0  0  0  0  0  0  0  0  0
  -38.8370  -15.9410   18.8260   O 0  0  0  0  0  0  0  0  0  0  0  0
  -39.5120  -18.3780   18.9070   O 0  0  0  0  0  0  0  0  0  0  0  0
  9  8  2  0  0  0  0
  4  2  2  0  0  0  0
 10  8  2  0  0  0  0
  8 11  1  0  0  0  0
  8  7  1  0  0  0  0
  6  7  2  0  0  0  0
  6  5  1  0  0  0  0
  3  2  2  0  0  0  0
  2  5  1  0  0  0  0
  2  1  1  0  0  0  0
  7 12  1  0  0  0  0
  5 15  2  0  0  0  0
 12 13  2  0  0  0  0
 12 16  1  0  0  0  0
 13 14  1  0  0  0  0
 15 16  1  0  0  0  0
 15 19  1  0  0  0  0
 16 17  2  0  0  0  0
 19 20  2  0  0  0  0
 14 18  2  0  0  0  0
 17 18  1  0  0  0  0
 17 21  1  0  0  0  0
 20 21  1  0  0  0  0
 18 26  1  0  0  0  0
 21 22  2  0  0  0  0
 29 27  2  0  0  0  0
 26 27  1  0  0  0  0
 26 25  2  0  0  0  0
 22 25  1  0  0  0  0
 22 23  1  0  0  0  0
 27 28  2  0  0  0  0
 27 30  1  0  0  0  0
 23 24  1  0  0  0  0
M  END
>  <InstanceId>
4NJA_2M9_H_501

>  <ChemCompId>
2M9

>  <PdbId>
4NJA

>  <ChainId>
H

>  <ResidueNumber>
501

>  <InsertionCode>


>  <Model>
1

>  <AltIds>


>  <MissingHeavyAtoms>
0

>  <ObservedFormula>
C17 O10 S3

>  <Name>
8-methoxypyrene-1,3,6-trisulfonic acid

>  <SystematicName>
8-methoxypyrene-1,3,6-trisulfonic acid

>  <Synonyms>


>  <Type>
NON-POLYMER

>  <Formula>
C17 H12 O10 S3

>  <MolecularWeight>
472.466

>  <ModifiedDate>
2014-11-07

>  <Parent>


>  <OneLetterCode>


>  <SubcomponentList>


>  <AmbiguousFlag>
N

>  <InChI>
InChI=1S/C17H12O10S3/c1-27-12-6-13(28(18,19)20)9-4-5-11-15(30(24,25)26)7-14(29(21,22)23)10-3-2-8(12)16(9)17(10)11/h2-7H,1H3,(H,18,19,20)(H,21,22,23)(H,24,25,26)

>  <InChIKey>
CTERCLHSWSQHSD-UHFFFAOYSA-N

>  <SMILES>
COc1cc(c2ccc3c(cc(c4c3c2c1cc4)S(=O)(=O)O)S(=O)(=O)O)S(=O)(=O)O

$$$$
