2WVZ_KIF_A_801
  RCSB PDB08012018113D
Coordinates from PDB:2WVZ:A:801 Model:1 without hydrogens
 16 17  0  0  0  0            999 V2000
  -15.1620  -21.7940   47.1850   C 0  0  0  0  0  0  0  0  0  0  0  0
  -16.3110  -22.4880   47.6020   O 0  0  0  0  0  0  0  0  0  0  0  0
  -15.3790  -20.2730   47.4290   C 0  0  0  0  0  0  0  0  0  0  0  0
  -16.0680  -19.6680   46.3000   O 0  0  0  0  0  0  0  0  0  0  0  0
  -14.0380  -19.5430   47.7070   C 0  0  0  0  0  0  0  0  0  0  0  0
  -14.1070  -18.1820   47.2900   O 0  0  0  0  0  0  0  0  0  0  0  0
  -12.8710  -20.2760   47.0480   C 0  0  0  0  0  0  0  0  0  0  0  0
  -11.5840  -19.5460   47.3080   N 0  0  0  0  0  0  0  0  0  0  0  0
  -10.9190  -20.2010   48.2880   C 0  0  0  0  0  0  0  0  0  0  0  0
   -9.8290  -19.8920   48.7910   O 0  0  0  0  0  0  0  0  0  0  0  0
  -11.6400  -21.3410   48.6720   C 0  0  0  0  0  0  0  0  0  0  0  0
  -11.2800  -22.1100   49.5610   O 0  0  0  0  0  0  0  0  0  0  0  0
  -12.8050  -21.4790   47.8830   N 0  0  0  0  0  0  0  0  0  0  0  0
  -13.9650  -22.3840   47.9640   C 0  0  0  0  0  0  0  0  0  0  0  0
  -13.6040  -23.7940   47.5100   C 0  0  0  0  0  0  0  0  0  0  0  0
  -13.1980  -23.6940   46.1550   O 0  0  0  0  0  0  0  0  0  0  0  0
  1  2  1  0  0  0  0
  1  3  1  0  0  0  0
  1 14  1  0  0  0  0
  3  4  1  0  0  0  0
  3  5  1  0  0  0  0
  5  6  1  0  0  0  0
  5  7  1  0  0  0  0
  7  8  1  0  0  0  0
  7 13  1  0  0  0  0
  8  9  1  0  0  0  0
  9 10  2  0  0  0  0
  9 11  1  0  0  0  0
 11 12  2  0  0  0  0
 11 13  1  0  0  0  0
 13 14  1  0  0  0  0
 14 15  1  0  0  0  0
 15 16  1  0  0  0  0
M  END
>  <InstanceId>
2WVZ_KIF_A_801

>  <ChemCompId>
KIF

>  <PdbId>
2WVZ

>  <ChainId>
A

>  <ResidueNumber>
801

>  <InsertionCode>


>  <Model>
1

>  <AltIds>


>  <MissingHeavyAtoms>
0

>  <ObservedFormula>
C8 N2 O6

>  <Name>
KIFUNENSINE

>  <SystematicName>
(5R,6R,7S,8R,8aS)-6,7,8-trihydroxy-5-(hydroxymethyl)-1,5,6,7,8,8a-hexahydroimidazo[1,2-a]pyridine-2,3-dione

>  <Synonyms>


>  <Type>
NON-POLYMER

>  <Formula>
C8 H12 N2 O6

>  <MolecularWeight>
232.191

>  <ModifiedDate>
2011-06-04

>  <Parent>


>  <OneLetterCode>


>  <SubcomponentList>


>  <AmbiguousFlag>
N

>  <InChI>
InChI=1S/C8H12N2O6/c11-1-2-3(12)4(13)5(14)6-9-7(15)8(16)10(2)6/h2-6,11-14H,1H2,(H,9,15)/t2-,3-,4+,5+,6+/m1/s1

>  <InChIKey>
OIURYJWYVIAOCW-PQMKYFCFSA-N

>  <SMILES>
C([C@@H]1[C@H]([C@@H]([C@@H]([C@@H]2N1C(=O)C(=O)N2)O)O)O)O

$$$$
