5I3A_HQE_A_303
  RCSB PDB08022001403D
Coordinates from PDB:5I3A:A:303 Model:1 without hydrogens
  8  8  0  0  0  0            999 V2000
    2.2060   99.2890   26.0930   C 0  0  0  0  0  0  0  0  0  0  0  0
    1.4730   99.9740   25.1350   C 0  0  0  0  0  0  0  0  0  0  0  0
    2.1220  100.6040   24.0850   C 0  0  0  0  0  0  0  0  0  0  0  0
    1.3840  101.2970   23.1080   O 0  0  0  0  0  0  0  0  0  0  0  0
    3.5030  100.5550   23.9980   C 0  0  0  0  0  0  0  0  0  0  0  0
    4.2360   99.8750   24.9550   C 0  0  0  0  0  0  0  0  0  0  0  0
    3.5880   99.2430   26.0030   C 0  0  0  0  0  0  0  0  0  0  0  0
    4.3400   98.5560   26.9710   O 0  0  0  0  0  0  0  0  0  0  0  0
  6  5  2  0  0  0  0
  6  7  1  0  0  0  0
  8  7  1  0  0  0  0
  5  3  1  0  0  0  0
  7  1  2  0  0  0  0
  3  4  1  0  0  0  0
  3  2  2  0  0  0  0
  1  2  1  0  0  0  0
M  END
>  <InstanceId>
5I3A_HQE_A_303

>  <ChemCompId>
HQE

>  <PdbId>
5I3A

>  <ChainId>
A

>  <ResidueNumber>
303

>  <InsertionCode>


>  <Model>
1

>  <AltIds>


>  <MissingHeavyAtoms>
0

>  <ObservedFormula>
C6 O2

>  <Name>
benzene-1,4-diol

>  <SystematicName>
benzene-1,4-diol

>  <Synonyms>


>  <Type>
NON-POLYMER

>  <Formula>
C6 H6 O2

>  <MolecularWeight>
110.111

>  <ModifiedDate>
2012-06-22

>  <Parent>


>  <OneLetterCode>


>  <SubcomponentList>


>  <AmbiguousFlag>
N

>  <InChI>
InChI=1S/C6H6O2/c7-5-1-2-6(8)4-3-5/h1-4,7-8H

>  <InChIKey>
QIGBRXMKCJKVMJ-UHFFFAOYSA-N

>  <SMILES>
c1cc(ccc1O)O

$$$$
