1HPX_KNI_B_900
  RCSB PDB08012015053D
Coordinates from PDB:1HPX:B:900 Model:1 without hydrogens
 46 49  0  0  0  0            999 V2000
    6.8480    1.1810    6.1590   C 0  0  0  0  0  0  0  0  0  0  0  0
    6.3030    2.0170    7.1160   C 0  0  0  0  0  0  0  0  0  0  0  0
    6.8860    3.2730    7.3630   C 0  0  0  0  0  0  0  0  0  0  0  0
    7.9910    3.5920    6.6130   C 0  0  0  0  0  0  0  0  0  0  0  0
    8.4680    2.6490    5.6450   C 0  0  0  0  0  0  0  0  0  0  0  0
    6.3520    4.1700    8.3470   C 0  0  0  0  0  0  0  0  0  0  0  0
    7.0000    5.3880    8.5210   C 0  0  0  0  0  0  0  0  0  0  0  0
    8.1090    5.7150    7.7740   C 0  0  0  0  0  0  0  0  0  0  0  0
    8.6290    4.8460    6.8160   C 0  0  0  0  0  0  0  0  0  0  0  0
    5.1400    4.3750   10.3520   C 0  0  0  0  0  0  0  0  0  0  0  0
    4.0670    3.6830   11.1060   C 0  0  0  0  0  0  0  0  0  0  0  0
    7.9070    1.4590    5.4270   N 0  0  0  0  0  0  0  0  0  0  0  0
    5.2350    3.7910    9.0820   O 0  0  0  0  0  0  0  0  0  0  0  0
    3.3270    4.2970   11.8520   O 0  0  0  0  0  0  0  0  0  0  0  0
    3.9550    2.3840   10.8930   N 0  0  0  0  0  0  0  0  0  0  0  0
    3.0280    1.6030   11.6960   C 0  0  0  0  0  0  0  0  0  0  0  0
    1.9440    1.0010   10.8350   C 0  0  0  0  0  0  0  0  0  0  0  0
    0.6680    0.4350   11.9930   S 0  0  0  0  0  0  0  0  0  0  0  0
   -0.1580    2.0560   12.1600   C 0  0  0  0  0  0  0  0  0  0  0  0
    3.7830    0.5420   12.4570   C 0  0  0  0  0  0  0  0  0  0  0  0
    3.7580   -0.6290   12.1110   O 0  0  0  0  0  0  0  0  0  0  0  0
    5.3390   -1.3860   16.3300   C 0  0  0  0  0  0  0  0  0  0  0  0
    4.4960    0.9820   13.4920   N 0  0  0  0  0  0  0  0  0  0  0  0
    6.3240   -1.2340   17.0450   O 0  0  0  0  0  0  0  0  0  0  0  0
    4.7050   -0.1800   15.6420   C 0  0  0  0  0  0  0  0  0  0  0  0
    7.3720    0.9000   12.9760   C 0  0  0  0  0  0  0  0  0  0  0  0
    6.7750    0.6540   14.3470   C 0  0  0  0  0  0  0  0  0  0  0  0
    8.4650    1.3190   10.4460   C 0  0  0  0  0  0  0  0  0  0  0  0
    5.3500    0.0820   14.2740   C 0  0  0  0  0  0  0  0  0  0  0  0
    4.9490    0.9340   16.4270   O 0  0  0  0  0  0  0  0  0  0  0  0
    7.4010    2.1660   12.4260   C 0  0  0  0  0  0  0  0  0  0  0  0
    7.8990   -0.1460   12.2450   C 0  0  0  0  0  0  0  0  0  0  0  0
    7.9490    2.3680   11.1710   C 0  0  0  0  0  0  0  0  0  0  0  0
    8.4370    0.0660   10.9930   C 0  0  0  0  0  0  0  0  0  0  0  0
    4.7420   -2.5650   16.0640   N 0  0  0  0  0  0  0  0  0  0  0  0
    3.5440   -2.6640   15.2240   C 0  0  0  0  0  0  0  0  0  0  0  0
    5.3730   -3.8190   16.5060   C 0  0  0  0  0  0  0  0  0  0  0  0
    4.4270   -4.9930   16.2580   C 0  0  0  0  0  0  0  0  0  0  0  0
    3.2630   -4.4400   14.9730   S 0  0  0  0  0  0  0  0  0  0  0  0
    6.6530   -3.9790   15.7410   C 0  0  0  0  0  0  0  0  0  0  0  0
    6.7460   -3.5740   14.5880   O 0  0  0  0  0  0  0  0  0  0  0  0
    7.6370   -4.5750   16.4030   N 0  0  0  0  0  0  0  0  0  0  0  0
    9.0130   -4.6390   15.8920   C 0  0  0  0  0  0  0  0  0  0  0  0
    9.5560   -3.2490   15.5420   C 0  0  0  0  0  0  0  0  0  0  0  0
    9.0970   -5.5670   14.6780   C 0  0  0  0  0  0  0  0  0  0  0  0
    9.8800   -5.1830   17.0210   C 0  0  0  0  0  0  0  0  0  0  0  0
  1  2  1  0  0  0  0
  1 12  2  0  0  0  0
  2  3  2  0  0  0  0
  3  4  1  0  0  0  0
  3  6  1  0  0  0  0
  4  5  2  0  0  0  0
  4  9  1  0  0  0  0
  5 12  1  0  0  0  0
  6  7  2  0  0  0  0
  6 13  1  0  0  0  0
  7  8  1  0  0  0  0
  8  9  2  0  0  0  0
 10 11  1  0  0  0  0
 10 13  1  0  0  0  0
 11 15  1  0  0  0  0
 11 14  2  0  0  0  0
 17 16  1  0  0  0  0
 17 18  1  0  0  0  0
 20 16  1  0  0  0  0
 20 23  1  0  0  0  0
 20 21  2  0  0  0  0
 29 25  1  0  0  0  0
 29 27  1  0  0  0  0
 29 23  1  0  0  0  0
 25 22  1  0  0  0  0
 25 30  1  0  0  0  0
 27 26  1  0  0  0  0
 22 35  1  0  0  0  0
 22 24  2  0  0  0  0
 37 38  1  0  0  0  0
 37 40  1  0  0  0  0
 37 35  1  0  0  0  0
 38 39  1  0  0  0  0
 36 35  1  0  0  0  0
 36 39  1  0  0  0  0
 40 42  1  0  0  0  0
 40 41  2  0  0  0  0
 43 44  1  0  0  0  0
 43 45  1  0  0  0  0
 43 46  1  0  0  0  0
 43 42  1  0  0  0  0
 16 15  1  0  0  0  0
 19 18  1  0  0  0  0
 26 31  2  0  0  0  0
 26 32  1  0  0  0  0
 31 33  1  0  0  0  0
 33 28  2  0  0  0  0
 28 34  1  0  0  0  0
 34 32  2  0  0  0  0
M  END
>  <InstanceId>
1HPX_KNI_B_900

>  <ChemCompId>
KNI

>  <PdbId>
1HPX

>  <ChainId>
B

>  <ResidueNumber>
900

>  <InsertionCode>


>  <Model>
1

>  <AltIds>


>  <MissingHeavyAtoms>
0

>  <ObservedFormula>
C33 N5 O6 S2

>  <Name>
(4R)-N-tert-butyl-3-[(2S,3S)-2-hydroxy-3-({N-[(isoquinolin-5-yloxy)acetyl]-S-methyl-L-cysteinyl}amino)-4-phenylbutanoyl]-1,3-thiazolidine-4-carboxamide

>  <SystematicName>
(4R)-N-tert-butyl-3-[(2S,3S)-2-hydroxy-3-[[(2R)-2-(2-isoquinolin-5-yloxyethanoylamino)-3-methylsulfanyl-propanoyl]amino]-4-phenyl-butanoyl]-1,3-thiazolidine-4-carboxamide

>  <Synonyms>
KNI-272; (N-TERT-BUTYL-THIOPROLINE)-(5-ISOQUINOLYLOXYACETYL-METHYLTHIOALANINE)-ALLOPHENYLNORSTATINE

>  <Type>
peptide-like

>  <Formula>
C33 H41 N5 O6 S2

>  <MolecularWeight>
667.839

>  <ModifiedDate>
2020-01-26

>  <Parent>


>  <OneLetterCode>


>  <SubcomponentList>
TUC SMC 005 PRS NTB

>  <AmbiguousFlag>
N

>  <InChI>
InChI=1S/C33H41N5O6S2/c1-33(2,3)37-31(42)26-19-46-20-38(26)32(43)29(40)24(15-21-9-6-5-7-10-21)36-30(41)25(18-45-4)35-28(39)17-44-27-12-8-11-22-16-34-14-13-23(22)27/h5-14,16,24-26,29,40H,15,17-20H2,1-4H3,(H,35,39)(H,36,41)(H,37,42)/t24-,25-,26-,29-/m0/s1

>  <InChIKey>
NJBBLOIWMSYVCQ-VZTVMPNDSA-N

>  <SMILES>
CC(C)(C)NC(=O)[C@@H]1CSCN1C(=O)[C@H]([C@H](Cc2ccccc2)NC(=O)[C@H](CSC)NC(=O)COc3cccc4c3ccnc4)O

$$$$
