2V2C_PGA_A_1254
  RCSB PDB08012017593D
Coordinates from PDB:2V2C:A:1254 Model:1 without hydrogens
  9  8  0  0  0  0            999 V2000
   12.0650   15.8960   15.4530   P 0  0  0  0  0  0  0  0  0  0  0  0
   11.7780   14.3280   15.6450   O 0  0  0  0  0  0  0  0  0  0  0  0
   13.1490   15.9000   14.3700   O 0  0  0  0  0  0  0  0  0  0  0  0
   10.7410   16.4640   15.0340   O 0  0  0  0  0  0  0  0  0  0  0  0
   12.5070   16.5490   16.7240   O 0  0  0  0  0  0  0  0  0  0  0  0
   12.8660   13.4140   15.7810   C 0  0  0  0  0  0  0  0  0  0  0  0
   12.3250   11.9850   15.8680   C 0  0  0  0  0  0  0  0  0  0  0  0
   12.7150   11.0490   15.1230   O 0  0  0  0  0  0  0  0  0  0  0  0
   11.4370   11.7630   16.6950   O 0  0  0  0  0  0  0  0  0  0  0  0
  1  2  1  0  0  0  0
  1  3  2  0  0  0  0
  1  4  1  0  0  0  0
  1  5  1  0  0  0  0
  2  6  1  0  0  0  0
  6  7  1  0  0  0  0
  7  8  2  0  0  0  0
  7  9  1  0  0  0  0
M  END
>  <InstanceId>
2V2C_PGA_A_1254

>  <ChemCompId>
PGA

>  <PdbId>
2V2C

>  <ChainId>
A

>  <ResidueNumber>
1254

>  <InsertionCode>


>  <Model>
1

>  <AltIds>


>  <MissingHeavyAtoms>
0

>  <ObservedFormula>
C2 O6 P

>  <Name>
2-PHOSPHOGLYCOLIC ACID

>  <SystematicName>
2-phosphonooxyethanoic acid

>  <Synonyms>


>  <Type>
NON-POLYMER

>  <Formula>
C2 H5 O6 P

>  <MolecularWeight>
156.031

>  <ModifiedDate>
2011-06-04

>  <Parent>


>  <OneLetterCode>


>  <SubcomponentList>


>  <AmbiguousFlag>
N

>  <InChI>
InChI=1S/C2H5O6P/c3-2(4)1-8-9(5,6)7/h1H2,(H,3,4)(H2,5,6,7)

>  <InChIKey>
ASCFNMCAHFUBCO-UHFFFAOYSA-N

>  <SMILES>
C(C(=O)O)OP(=O)(O)O

$$$$
