3OK9_G52_A_401
  RCSB PDB08012020033D
Coordinates from PDB:3OK9:A:401 Model:1 without hydrogens
 42 46  0  0  0  0            999 V2000
   21.0010   27.7160   14.7810   C 0  0  0  0  0  0  0  0  0  0  0  0
   19.6640   27.6990   14.3900   C 0  0  0  0  0  0  0  0  0  0  0  0
   18.8690   26.5780   14.5980   C 0  0  0  0  0  0  0  0  0  0  0  0
   19.3900   25.4810   15.2810   C 0  0  0  0  0  0  0  0  0  0  0  0
   20.7370   25.4790   15.5860   C 0  0  0  0  0  0  0  0  0  0  0  0
   21.5740   26.5580   15.3090   C 0  0  0  0  0  0  0  0  0  0  0  0
   18.4030   24.0840   15.6940   S 0  0  0  0  0  0  0  0  0  0  0  0
   17.3220   24.0040   14.6670   O 0  0  0  0  0  0  0  0  0  0  0  0
   19.3150   22.9220   15.8240   O 0  0  0  0  0  0  0  0  0  0  0  0
   17.7090   24.2840   17.1750   N 0  0  0  0  0  0  0  0  0  0  0  0
   18.6590   24.5440   18.2440   C 0  0  0  0  0  0  0  0  0  0  0  0
   18.3170   23.8950   19.5820   C 0  0  0  0  0  0  0  0  0  0  0  0
   18.2110   22.3730   19.5590   C 0  0  0  0  0  0  0  0  0  0  0  0
   19.3940   24.2920   20.6110   C 0  0  0  0  0  0  0  0  0  0  0  0
   16.4650   25.0450   17.2430   C 0  0  0  0  0  0  0  0  0  0  0  0
   15.3120   24.1680   17.7060   C 0  0  0  0  0  0  0  0  0  0  0  0
   14.1680   24.9750   17.9920   O 0  0  0  0  0  0  0  0  0  0  0  0
   14.9500   23.0320   16.7540   C 0  0  0  0  0  0  0  0  0  0  0  0
   14.0210   22.0980   17.3780   N 0  0  0  0  0  0  0  0  0  0  0  0
   14.2710   20.8360   17.7170   C 0  0  0  0  0  0  0  0  0  0  0  0
   15.3900   20.3290   17.5120   O 0  0  0  0  0  0  0  0  0  0  0  0
   13.2150   20.2220   18.3140   O 0  0  0  0  0  0  0  0  0  0  0  0
   13.4080   18.8380   18.5870   C 0  0  0  0  0  0  0  0  0  0  0  0
   12.8870   18.5800   19.9910   C 0  0  0  0  0  0  0  0  0  0  0  0
   11.4590   18.4980   19.8750   O 0  0  0  0  0  0  0  0  0  0  0  0
   11.1310   18.1540   18.5520   C 0  0  0  0  0  0  0  0  0  0  0  0
   10.3990   19.2410   17.9550   O 0  0  0  0  0  0  0  0  0  0  0  0
   10.9390   19.6190   16.7160   C 0  0  0  0  0  0  0  0  0  0  0  0
   12.0780   18.6490   16.4060   C 0  0  0  0  0  0  0  0  0  0  0  0
   12.4080   18.0150   17.7440   C 0  0  0  0  0  0  0  0  0  0  0  0
   14.2820   23.5310   15.4880   C 0  0  0  0  0  0  0  0  0  0  0  0
   12.6610   21.9310   14.3700   C 0  0  0  0  0  0  0  0  0  0  0  0
   12.3280   20.8610   13.5350   C 0  0  0  0  0  0  0  0  0  0  0  0
   13.3570   20.2640   12.8100   C 0  0  0  0  0  0  0  0  0  0  0  0
   14.6700   20.6690   13.0050   C 0  0  0  0  0  0  0  0  0  0  0  0
   14.9890   21.7310   13.8520   C 0  0  0  0  0  0  0  0  0  0  0  0
   13.9700   22.3600   14.5340   C 0  0  0  0  0  0  0  0  0  0  0  0
   21.7130   28.8620   14.5770   O 0  0  0  0  0  0  0  0  0  0  0  0
   23.0460   28.7540   15.0250   C 0  0  0  0  0  0  0  0  0  0  0  0
    9.9220   19.3920   15.7030   O 0  0  0  0  0  0  0  0  0  0  0  0
    9.9500   17.9520   15.5140   C 0  0  0  0  0  0  0  0  0  0  0  0
   11.4540   17.6810   15.4100   C 0  0  0  0  0  0  0  0  0  0  0  0
  2  1  2  0  0  0  0
 38  1  1  0  0  0  0
  1  6  1  0  0  0  0
  2  3  1  0  0  0  0
  3  4  2  0  0  0  0
  4  5  1  0  0  0  0
  4  7  1  0  0  0  0
  6  5  2  0  0  0  0
  8  7  2  0  0  0  0
  7  9  2  0  0  0  0
  7 10  1  0  0  0  0
 10 15  1  0  0  0  0
 10 11  1  0  0  0  0
 11 12  1  0  0  0  0
 13 12  1  0  0  0  0
 12 14  1  0  0  0  0
 15 16  1  0  0  0  0
 18 16  1  0  0  0  0
 16 17  1  0  0  0  0
 31 18  1  0  0  0  0
 18 19  1  0  0  0  0
 19 20  1  0  0  0  0
 21 20  2  0  0  0  0
 20 22  1  0  0  0  0
 22 23  1  0  0  0  0
 30 23  1  0  0  0  0
 23 24  1  0  0  0  0
 25 24  1  0  0  0  0
 26 25  1  0  0  0  0
 30 26  1  0  0  0  0
 27 26  1  0  0  0  0
 28 27  1  0  0  0  0
 40 28  1  0  0  0  0
 29 28  1  0  0  0  0
 42 29  1  0  0  0  0
 29 30  1  0  0  0  0
 37 31  1  0  0  0  0
 33 32  2  0  0  0  0
 32 37  1  0  0  0  0
 34 33  1  0  0  0  0
 34 35  2  0  0  0  0
 35 36  1  0  0  0  0
 36 37  2  0  0  0  0
 38 39  1  0  0  0  0
 41 40  1  0  0  0  0
 42 41  1  0  0  0  0
M  END
>  <InstanceId>
3OK9_G52_A_401

>  <ChemCompId>
G52

>  <PdbId>
3OK9

>  <ChainId>
A

>  <ResidueNumber>
401

>  <InsertionCode>


>  <Model>
1

>  <AltIds>


>  <MissingHeavyAtoms>
0

>  <ObservedFormula>
C30 N2 O9 S

>  <Name>
(3R,3aS,3bR,6aS,7aS)-octahydrodifuro[2,3-b:3',2'-d]furan-3-yl [(1S,2R)-1-benzyl-2-hydroxy-3-{[(4-methoxyphenyl)sulfonyl](2-methylpropyl)amino}propyl]carbamate

>  <SystematicName>


>  <Synonyms>


>  <Type>
NON-POLYMER

>  <Formula>
C30 H40 N2 O9 S

>  <MolecularWeight>
604.712

>  <ModifiedDate>
2011-06-04

>  <Parent>


>  <OneLetterCode>


>  <SubcomponentList>


>  <AmbiguousFlag>
N

>  <InChI>
InChI=1S/C30H40N2O9S/c1-19(2)16-32(42(35,36)22-11-9-21(37-3)10-12-22)17-25(33)24(15-20-7-5-4-6-8-20)31-30(34)40-26-18-39-29-27(26)23-13-14-38-28(23)41-29/h4-12,19,23-29,33H,13-18H2,1-3H3,(H,31,34)/t23-,24+,25-,26+,27+,28+,29+/m1/s1

>  <InChIKey>
QWMNYFXRFHGYGS-DDGGWZRMSA-N

>  <SMILES>
CC(C)C[N@@](C[C@H]([C@H](Cc1ccccc1)NC(=O)O[C@H]2CO[C@@H]3[C@H]2[C@H]4CCO[C@H]4O3)O)S(=O)(=O)c5ccc(cc5)OC

$$$$
