5C3P_AKG_A_402
  RCSB PDB08022000553D
Coordinates from PDB:5C3P:A:402 Model:1 without hydrogens
 10  9  0  0  0  0            999 V2000
   19.1520   18.6540   94.3030   C 0  0  0  0  0  0  0  0  0  0  0  0
   18.4440   18.0420   93.4730   O 0  0  0  0  0  0  0  0  0  0  0  0
   19.8560   18.0360   95.1380   O 0  0  0  0  0  0  0  0  0  0  0  0
   19.1540   20.1270   94.2700   C 0  0  0  0  0  0  0  0  0  0  0  0
   18.6620   20.7240   93.3130   O 0  0  0  0  0  0  0  0  0  0  0  0
   19.7680   20.8950   95.4230   C 0  0  0  0  0  0  0  0  0  0  0  0
   19.3540   22.3630   95.4090   C 0  0  0  0  0  0  0  0  0  0  0  0
   19.8110   23.1100   96.6410   C 0  0  0  0  0  0  0  0  0  0  0  0
   19.2830   24.2180   96.8690   O 0  0  0  0  0  0  0  0  0  0  0  0
   20.7110   22.6390   97.3710   O 0  0  0  0  0  0  0  0  0  0  0  0
  1  2  2  0  0  0  0
  1  3  1  0  0  0  0
  1  4  1  0  0  0  0
  4  5  2  0  0  0  0
  4  6  1  0  0  0  0
  6  7  1  0  0  0  0
  7  8  1  0  0  0  0
  8  9  2  0  0  0  0
  8 10  1  0  0  0  0
M  END
>  <InstanceId>
5C3P_AKG_A_402

>  <ChemCompId>
AKG

>  <PdbId>
5C3P

>  <ChainId>
A

>  <ResidueNumber>
402

>  <InsertionCode>


>  <Model>
1

>  <AltIds>


>  <MissingHeavyAtoms>
0

>  <ObservedFormula>
C5 O5

>  <Name>
2-OXOGLUTARIC ACID

>  <SystematicName>
2-oxidanylidenepentanedioic acid

>  <Synonyms>


>  <Type>
NON-POLYMER

>  <Formula>
C5 H6 O5

>  <MolecularWeight>
146.098

>  <ModifiedDate>
2017-01-17

>  <Parent>


>  <OneLetterCode>


>  <SubcomponentList>


>  <AmbiguousFlag>
N

>  <InChI>
InChI=1S/C5H6O5/c6-3(5(9)10)1-2-4(7)8/h1-2H2,(H,7,8)(H,9,10)

>  <InChIKey>
KPGXRSRHYNQIFN-UHFFFAOYSA-N

>  <SMILES>
C(CC(=O)O)C(=O)C(=O)O

$$$$
