4YHM_4CC_H_301
  RCSB PDB08022000303D
Coordinates from PDB:4YHM:H:301 Model:1 without hydrogens
 35 38  0  0  0  0            999 V2000
   -4.5730   20.9890    9.6090   N 0  0  0  0  0  0  0  0  0  0  0  0
   -3.8580   23.1460   10.6400   C 0  0  0  0  0  0  0  0  0  0  0  0
   -1.2470   22.0530   10.4080   C 0  0  0  0  0  0  0  0  0  0  0  0
   -3.8670   19.9270    9.1480   C 0  0  0  0  0  0  0  0  0  0  0  0
   -6.0320   21.1420    9.6560   C 0  0  0  0  0  0  0  0  0  0  0  0
   -1.4680   23.3440   10.9340   C 0  0  0  0  0  0  0  0  0  0  0  0
    0.0180   22.8150   13.4430   C 0  0  0  0  0  0  0  0  0  0  0  0
   -5.0360   17.5170    5.9930   C 0  0  0  0  0  0  0  0  0  0  0  0
    1.0120   21.9150   13.0570   C 0  0  0  0  0  0  0  0  0  0  0  0
   -3.0100   16.0490    4.7750   C 0  0  0  0  0  0  0  0  0  0  0  0
    1.1120   20.7040   13.7240   C 0  0  0  0  0  0  0  0  0  0  0  0
   -0.0320   26.3100   15.7330   C 0  0  0  0  0  0  0  0  0  0  0  0
   -3.6680   21.9010   10.0660   C 0  0  0  0  0  0  0  0  0  0  0  0
   -2.3750   21.3360    9.9380   C 0  0  0  0  0  0  0  0  0  0  0  0
   -2.5840   20.1090    9.3730   N 0  0  0  0  0  0  0  0  0  0  0  0
   -2.7780   23.8430   11.0600   C 0  0  0  0  0  0  0  0  0  0  0  0
   -4.5480   18.7090    8.5590   C 0  0  0  0  0  0  0  0  0  0  0  0
   -0.5310   24.2840   11.5770   C 0  0  0  0  0  0  0  0  0  0  0  0
   -3.5970   17.7720    7.9590   N 0  0  0  0  0  0  0  0  0  0  0  0
    0.0090   24.0500   12.8090   N 0  0  0  0  0  0  0  0  0  0  0  0
   -0.5150   25.4220   11.1330   O 0  0  0  0  0  0  0  0  0  0  0  0
   -3.8190   17.2750    6.6680   C 0  0  0  0  0  0  0  0  0  0  0  0
    0.7120   25.1170   13.5400   C 0  0  0  0  0  0  0  0  0  0  0  0
   -2.8050   16.5390    6.0450   C 0  0  0  0  0  0  0  0  0  0  0  0
   -0.7690   22.5590   14.4840   N 0  0  0  0  0  0  0  0  0  0  0  0
   -0.4260   25.7320   14.3870   C 0  0  0  0  0  0  0  0  0  0  0  0
   -5.2410   17.0240    4.7140   C 0  0  0  0  0  0  0  0  0  0  0  0
   -0.6950   21.4080   15.1370   C 0  0  0  0  0  0  0  0  0  0  0  0
   -4.2310   16.2620    4.1020   C 0  0  0  0  0  0  0  0  0  0  0  0
    0.2370   20.4470   14.7770   C 0  0  0  0  0  0  0  0  0  0  0  0
    0.1810   25.5950   16.7080   O 0  0  0  0  0  0  0  0  0  0  0  0
    0.0310   27.5230   15.8560   O 0  0  0  0  0  0  0  0  0  0  0  0
   -4.4130   15.7220    2.7300   C 0  0  0  0  0  0  0  0  0  0  0  0
   -4.6670   16.5510    1.7160   N 0  0  0  0  0  0  0  0  0  0  0  0
   -4.3200   14.4050    2.5010   N 0  0  0  0  0  0  0  0  0  0  0  0
 31 12  2  0  0  0  0
 32 12  1  0  0  0  0
 12 26  1  0  0  0  0
 26 23  1  0  0  0  0
 23 20  1  0  0  0  0
  9 11  2  0  0  0  0
  9  7  1  0  0  0  0
 11 30  1  0  0  0  0
 21 18  2  0  0  0  0
 20  7  1  0  0  0  0
 20 18  1  0  0  0  0
  7 25  2  0  0  0  0
 18  6  1  0  0  0  0
 30 28  2  0  0  0  0
 25 28  1  0  0  0  0
  3  6  2  0  0  0  0
  3 14  1  0  0  0  0
  6 16  1  0  0  0  0
 14 15  1  0  0  0  0
 14 13  2  0  0  0  0
 16  2  2  0  0  0  0
 15  4  2  0  0  0  0
  8 27  2  0  0  0  0
  8 22  1  0  0  0  0
 27 29  1  0  0  0  0
 13  2  1  0  0  0  0
 13  1  1  0  0  0  0
 19 22  1  0  0  0  0
 19 17  1  0  0  0  0
 22 24  2  0  0  0  0
  4  1  1  0  0  0  0
  4 17  1  0  0  0  0
 35 33  2  0  0  0  0
 29 33  1  0  0  0  0
 29 10  2  0  0  0  0
 33 34  1  0  0  0  0
  1  5  1  0  0  0  0
 24 10  1  0  0  0  0
M  END
>  <InstanceId>
4YHM_4CC_H_301

>  <ChemCompId>
4CC

>  <PdbId>
4YHM

>  <ChainId>
H

>  <ResidueNumber>
301

>  <InsertionCode>


>  <Model>
1

>  <AltIds>


>  <MissingHeavyAtoms>
0

>  <ObservedFormula>
C25 N7 O3

>  <Name>
N-[(2-{[(4-carbamimidoylphenyl)amino]methyl}-1-methyl-1H-benzimidazol-5-yl)carbonyl]-N-pyridin-2-yl-beta-alanine

>  <SystematicName>
3-[[2-[[(4-carbamimidoylphenyl)amino]methyl]-1-methyl-benzimidazol-5-yl]carbonyl-pyridin-2-yl-amino]propanoic acid

>  <Synonyms>


>  <Type>
NON-POLYMER

>  <Formula>
C25 H25 N7 O3

>  <MolecularWeight>
471.511

>  <ModifiedDate>
2015-03-06

>  <Parent>


>  <OneLetterCode>


>  <SubcomponentList>


>  <AmbiguousFlag>
N

>  <InChI>
InChI=1S/C25H25N7O3/c1-31-20-10-7-17(25(35)32(13-11-23(33)34)21-4-2-3-12-28-21)14-19(20)30-22(31)15-29-18-8-5-16(6-9-18)24(26)27/h2-10,12,14,29H,11,13,15H2,1H3,(H3,26,27)(H,33,34)

>  <InChIKey>
YBSJFWOBGCMAKL-UHFFFAOYSA-N

>  <SMILES>
[H]/N=C(\c1ccc(cc1)NCc2nc3cc(ccc3n2C)C(=O)N(CCC(=O)O)c4ccccn4)/N

$$$$
