6G2M_O84_A_305
  RCSB PDB08022004453D
Coordinates from PDB:6G2M:A:305 Model:1 without hydrogens
 34 37  0  0  0  0            999 V2000
   -6.2110   26.2050   32.4090   O 0  0  0  0  0  0  0  0  0  0  0  0
   -5.7820   24.8420   32.0490   P 0  0  0  0  0  0  0  0  0  0  0  0
   -6.9190   23.9700   31.6620   O 0  0  0  0  0  0  0  0  0  0  0  0
   -5.0130   24.1820   33.2180   O 0  0  0  0  0  0  0  0  0  0  0  0
   -4.5610   24.8280   30.7040   C 0  0  0  0  0  0  0  0  0  0  0  0
   -4.3130   23.4000   30.2820   C 0  0  0  0  0  0  0  0  0  0  0  0
   -3.3430   22.6830   30.9520   C 0  0  0  0  0  0  0  0  0  0  0  0
   -3.1130   21.3380   30.6000   C 0  0  0  0  0  0  0  0  0  0  0  0
   -3.8790   20.7360   29.6080   C 0  0  0  0  0  0  0  0  0  0  0  0
   -4.8150   21.4680   28.9010   C 0  0  0  0  0  0  0  0  0  0  0  0
   -5.0400   22.8010   29.2610   C 0  0  0  0  0  0  0  0  0  0  0  0
   -5.0180   25.4680   29.4950   O 0  0  0  0  0  0  0  0  0  0  0  0
   -3.3620   25.4170   31.0680   O 0  0  0  0  0  0  0  0  0  0  0  0
   -3.2420   26.8060   31.2940   C 0  0  0  0  0  0  0  0  0  0  0  0
   -3.9480   27.5540   30.1700   C 0  0  0  0  0  0  0  0  0  0  0  0
   -2.9780   27.5870   29.1100   O 0  0  0  0  0  0  0  0  0  0  0  0
   -5.1660   26.8960   29.5390   C 0  0  0  0  0  0  0  0  0  0  0  0
   -5.1370   27.3760   28.0960   C 0  0  0  0  0  0  0  0  0  0  0  0
   -3.6230   27.7180   27.8990   C 0  0  0  0  0  0  0  0  0  0  0  0
   -3.0190   26.8900   26.8520   N 0  0  0  0  0  0  0  0  0  0  0  0
   -3.3940   25.5570   26.6720   C 0  0  0  0  0  0  0  0  0  0  0  0
   -2.0860   27.4340   26.0260   C 0  0  0  0  0  0  0  0  0  0  0  0
   -1.6020   28.5990   26.2210   O 0  0  0  0  0  0  0  0  0  0  0  0
   -1.6460   26.6990   24.9620   N 0  0  0  0  0  0  0  0  0  0  0  0
   -2.1300   25.4330   24.6920   C 0  0  0  0  0  0  0  0  0  0  0  0
   -1.6870   24.9650   23.6240   O 0  0  0  0  0  0  0  0  0  0  0  0
   -2.9760   24.8030   25.6450   C 0  0  0  0  0  0  0  0  0  0  0  0
   -3.5130   23.4250   25.5900   C 0  0  0  0  0  0  0  0  0  0  0  0
   -3.5420   22.5850   24.6520   C 0  0  0  0  0  0  0  0  0  0  0  0
   -4.1740   21.2510   24.7830   C 0  0  0  0  0  0  0  0  0  0  0  0
   -3.1930   20.0380   23.9890   P 0  0  0  0  0  0  0  0  0  0  0  0
   -2.9200   20.4750   22.5210   O 0  0  0  0  0  0  0  0  0  0  0  0
   -4.0340   18.7730   23.9360   O 0  0  0  0  0  0  0  0  0  0  0  0
   -1.9010   19.8310   24.7410   O 0  0  0  0  0  0  0  0  0  0  0  0
 32 31  2  0  0  0  0
 26 25  2  0  0  0  0
 33 31  1  0  0  0  0
 31 34  1  0  0  0  0
 31 30  1  0  0  0  0
 29 30  1  0  0  0  0
 29 28  2  0  0  0  0
 25 24  1  0  0  0  0
 25 27  1  0  0  0  0
 24 22  1  0  0  0  0
 28 27  1  0  0  0  0
 27 21  2  0  0  0  0
 22 23  2  0  0  0  0
 22 20  1  0  0  0  0
 21 20  1  0  0  0  0
 20 19  1  0  0  0  0
 19 18  1  0  0  0  0
 19 16  1  0  0  0  0
 18 17  1  0  0  0  0
 10 11  2  0  0  0  0
 10  9  1  0  0  0  0
 16 15  1  0  0  0  0
 11  6  1  0  0  0  0
 12 17  1  0  0  0  0
 12  5  1  0  0  0  0
 17 15  1  0  0  0  0
  9  8  2  0  0  0  0
 15 14  1  0  0  0  0
  6  5  1  0  0  0  0
  6  7  2  0  0  0  0
  8  7  1  0  0  0  0
  5 13  1  0  0  0  0
  5  2  1  0  0  0  0
 13 14  1  0  0  0  0
  3  2  2  0  0  0  0
  2  1  1  0  0  0  0
  2  4  1  0  0  0  0
M  END
>  <InstanceId>
6G2M_O84_A_305

>  <ChemCompId>
O84

>  <PdbId>
6G2M

>  <ChainId>
A

>  <ResidueNumber>
305

>  <InsertionCode>


>  <Model>
1

>  <AltIds>


>  <MissingHeavyAtoms>
0

>  <ObservedFormula>
C19 N2 O11 P2

>  <Name>
[(2~{R},4~{a}~{R},6~{R},7~{a}~{R})-6-[2,4-bis(oxidanylidene)-5-[(~{E})-3-phosphonoprop-1-enyl]pyrimidin-1-yl]-2-phenyl-4~{a},6,7,7~{a}-tetrahydro-4~{H}-furo[3,2-d][1,3]dioxin-2-yl]phosphonic acid

>  <SystematicName>
[(2~{R},4~{a}~{R},6~{R},7~{a}~{R})-6-[2,4-bis(oxidanylidene)-5-[(~{E})-3-phosphonoprop-1-enyl]pyrimidin-1-yl]-2-phenyl-4~{a},6,7,7~{a}-tetrahydro-4~{H}-furo[3,2-d][1,3]dioxin-2-yl]phosphonic acid

>  <Synonyms>


>  <Type>
NON-POLYMER

>  <Formula>
C19 H22 N2 O11 P2

>  <MolecularWeight>
516.332

>  <ModifiedDate>
2018-07-06

>  <Parent>


>  <OneLetterCode>


>  <SubcomponentList>


>  <AmbiguousFlag>
N

>  <InChI>
InChI=1S/C19H22N2O11P2/c22-17-12(5-4-8-33(24,25)26)10-21(18(23)20-17)16-9-14-15(31-16)11-30-19(32-14,34(27,28)29)13-6-2-1-3-7-13/h1-7,10,14-16H,8-9,11H2,(H,20,22,23)(H2,24,25,26)(H2,27,28,29)/b5-4+/t14-,15-,16-,19-/m1/s1

>  <InChIKey>
TZXVMSWLUKAZDT-PDBOZARJSA-N

>  <SMILES>
c1ccc(cc1)[C@]2(OC[C@@H]3[C@H](O2)C[C@@H](O3)N4C=C(C(=O)NC4=O)/C=C/CP(=O)(O)O)P(=O)(O)O

$$$$
