4DKQ_0LK_A_613
  RCSB PDB08012021293D
Coordinates from PDB:4DKQ:A:613 Model:1 without hydrogens
 27 29  0  0  0  0            999 V2000
   -3.8260  -15.8600   13.8350   C 0  0  0  0  0  0  0  0  0  0  0  0
   -4.0550  -15.7730   16.2360   C 0  0  0  0  0  0  0  0  0  0  0  0
   -5.4280  -15.2510   18.7170   C 0  0  0  0  0  0  0  0  0  0  0  0
   -6.1430  -15.3690   17.5400   C 0  0  0  0  0  0  0  0  0  0  0  0
   -5.4860  -15.6230   16.2930   C 0  0  0  0  0  0  0  0  0  0  0  0
   -4.7840  -15.0910    7.1930   C 0  0  0  0  0  0  0  0  0  0  0  0
   -4.1900  -15.8270    8.2640   C 0  0  0  0  0  0  0  0  0  0  0  0
   -3.2570  -15.2320    9.0490   C 0  0  0  0  0  0  0  0  0  0  0  0
   -2.9020  -13.9170    8.7840   C 0  0  0  0  0  0  0  0  0  0  0  0
   -3.4830  -13.1850    7.7370   C 0  0  0  0  0  0  0  0  0  0  0  0
   -4.4260  -13.7940    6.9490   C 0  0  0  0  0  0  0  0  0  0  0  0
   -2.5120  -15.7850   10.1840   C 0  0  0  0  0  0  0  0  0  0  0  0
   -1.3640  -14.6510   10.4150   C 0  0  0  0  0  0  0  0  0  0  0  0
   -1.8660  -13.4420    9.7450   C 0  0  0  0  0  0  0  0  0  0  0  0
   -0.0380  -15.0850    9.7750   N 0  0  0  0  0  0  0  0  0  0  0  0
   -3.3590  -15.9780   11.4590   N 0  0  0  0  0  0  0  0  0  0  0  0
   -2.8950  -16.1300   12.6930   C 0  0  0  0  0  0  0  0  0  0  0  0
   -3.3810  -15.9950   15.0670   N 0  0  0  0  0  0  0  0  0  0  0  0
   -5.0640  -15.5020   13.5190   O 0  0  0  0  0  0  0  0  0  0  0  0
   -1.7190  -16.4870   12.9070   O 0  0  0  0  0  0  0  0  0  0  0  0
   -3.3560  -15.6370   17.4170   C 0  0  0  0  0  0  0  0  0  0  0  0
   -4.0600  -15.3740   18.6870   C 0  0  0  0  0  0  0  0  0  0  0  0
   -6.2800  -14.9340   20.2090  Cl 0  0  0  0  0  0  0  0  0  0  0  0
   -7.4520  -15.2540   17.5610   F 0  0  0  0  0  0  0  0  0  0  0  0
    0.5970  -16.1340   10.0420   C 0  0  0  0  0  0  0  0  0  0  0  0
    0.1800  -17.0470   10.9990   N 0  0  0  0  0  0  0  0  0  0  0  0
    1.7930  -16.4120    9.3670   N 0  0  0  0  0  0  0  0  0  0  0  0
 11  6  2  0  0  0  0
 11 10  1  0  0  0  0
  6  7  1  0  0  0  0
 10  9  2  0  0  0  0
  7  8  2  0  0  0  0
  9  8  1  0  0  0  0
  9 14  1  0  0  0  0
  8 12  1  0  0  0  0
 27 25  2  0  0  0  0
 14 13  1  0  0  0  0
 15 25  1  0  0  0  0
 15 13  1  0  0  0  0
 25 26  1  0  0  0  0
 12 13  1  0  0  0  0
 12 16  1  0  0  0  0
 16 17  1  0  0  0  0
 17 20  2  0  0  0  0
 17  1  1  0  0  0  0
 19  1  2  0  0  0  0
  1 18  1  0  0  0  0
 18  2  1  0  0  0  0
  2  5  2  0  0  0  0
  2 21  1  0  0  0  0
  5  4  1  0  0  0  0
 21 22  2  0  0  0  0
  4 24  1  0  0  0  0
  4  3  2  0  0  0  0
 22  3  1  0  0  0  0
  3 23  1  0  0  0  0
M  END
>  <InstanceId>
4DKQ_0LK_A_613

>  <ChemCompId>
0LK

>  <PdbId>
4DKQ

>  <ChainId>
A

>  <ResidueNumber>
613

>  <InsertionCode>


>  <Model>
1

>  <AltIds>


>  <MissingHeavyAtoms>
0

>  <ObservedFormula>
C18 N5 O2 F Cl

>  <Name>
N-[(1S,2S)-2-carbamimidamido-2,3-dihydro-1H-inden-1-yl]-N'-(4-chloro-3-fluorophenyl)ethanediamide

>  <SystematicName>
N'-[(1S,2S)-2-carbamimidamido-2,3-dihydro-1H-inden-1-yl]-N-(4-chloranyl-3-fluoranyl-phenyl)ethanediamide

>  <Synonyms>


>  <Type>
NON-POLYMER

>  <Formula>
C18 H17 Cl F N5 O2

>  <MolecularWeight>
389.811

>  <ModifiedDate>
2012-04-27

>  <Parent>


>  <OneLetterCode>


>  <SubcomponentList>


>  <AmbiguousFlag>
N

>  <InChI>
InChI=1S/C18H17ClFN5O2/c19-12-6-5-10(8-13(12)20)23-16(26)17(27)25-15-11-4-2-1-3-9(11)7-14(15)24-18(21)22/h1-6,8,14-15H,7H2,(H,23,26)(H,25,27)(H4,21,22,24)/t14-,15-/m0/s1

>  <InChIKey>
ICNIHLCRBSFIFO-GJZGRUSLSA-N

>  <SMILES>
[H]/N=C(\N)/N[C@H]1Cc2ccccc2[C@@H]1NC(=O)C(=O)Nc3ccc(c(c3)F)Cl

$$$$
