3JDW_ORN_A_500
  RCSB PDB08012019313D
Coordinates from PDB:3JDW:A:500 Model:1 without hydrogens
  9  8  0  0  0  0            999 V2000
   45.3460   72.9490   15.1450   N 0  0  0  0  0  0  0  0  0  0  0  0
   44.3150   72.5380   16.1400   C 0  0  0  0  0  0  0  0  0  0  0  0
   44.6570   71.1800   16.7980   C 0  0  0  0  0  0  0  0  0  0  0  0
   46.1290   70.8250   17.0110   C 0  0  0  0  0  0  0  0  0  0  0  0
   46.2630   69.2890   17.1560   C 0  0  0  0  0  0  0  0  0  0  0  0
   47.6880   68.7310   17.0320   N 0  0  0  0  0  0  0  0  0  0  0  0
   44.0600   73.6230   17.1850   C 0  0  0  0  0  0  0  0  0  0  0  0
   43.1520   73.4310   18.0170   O 0  0  0  0  0  0  0  0  0  0  0  0
   44.7150   74.6930   17.1210   O 0  0  0  0  0  0  0  0  0  0  0  0
  1  2  1  0  0  0  0
  2  3  1  0  0  0  0
  2  7  1  0  0  0  0
  3  4  1  0  0  0  0
  4  5  1  0  0  0  0
  5  6  1  0  0  0  0
  7  8  2  0  0  0  0
  7  9  1  0  0  0  0
M  END
>  <InstanceId>
3JDW_ORN_A_500

>  <ChemCompId>
ORN

>  <PdbId>
3JDW

>  <ChainId>
A

>  <ResidueNumber>
500

>  <InsertionCode>


>  <Model>
1

>  <AltIds>


>  <MissingHeavyAtoms>
0

>  <ObservedFormula>
C5 N2 O2

>  <Name>
L-ornithine

>  <SystematicName>
(2S)-2,5-bis(azanyl)pentanoic acid

>  <Synonyms>


>  <Type>
L-PEPTIDE LINKING

>  <Formula>
C5 H12 N2 O2

>  <MolecularWeight>
132.161

>  <ModifiedDate>
2012-03-14

>  <Parent>
ALA

>  <OneLetterCode>
A

>  <SubcomponentList>


>  <AmbiguousFlag>
N

>  <InChI>
InChI=1S/C5H12N2O2/c6-3-1-2-4(7)5(8)9/h4H,1-3,6-7H2,(H,8,9)/t4-/m0/s1

>  <InChIKey>
AHLPHDHHMVZTML-BYPYZUCNSA-N

>  <SMILES>
C(C[C@@H](C(=O)O)N)CN

$$$$
