1D4L_PI9_A_201
  RCSB PDB08012014443D
Coordinates from PDB:1D4L:A:201 Model:1 without hydrogens
 43 45  0  0  0  0            999 V2000
    5.1510    4.3240    9.0720   C 0  0  0  0  0  0  0  0  0  0  0  0
    3.6790    4.2760    9.3940   C 0  0  0  0  0  0  0  0  0  0  0  0
    3.4000    3.6170   10.7330   C 0  0  0  0  0  0  0  0  0  0  0  0
    3.3390    4.3030   11.7430   O 0  0  0  0  0  0  0  0  0  0  0  0
    5.4690    3.2480    8.0750   C 0  0  0  0  0  0  0  0  0  0  0  0
    6.7590    3.5080    7.3360   C 0  0  0  0  0  0  0  0  0  0  0  0
    3.2850    2.2900   10.7580   N 0  0  0  0  0  0  0  0  0  0  0  0
    2.9890    1.5710   12.0090   C 0  0  0  0  0  0  0  0  0  0  0  0
    1.6300    0.8350   11.9090   C 0  0  0  0  0  0  0  0  0  0  0  0
    1.4080   -0.0300   13.1370   C 0  0  0  0  0  0  0  0  0  0  0  0
    0.4900    1.8410   11.7620   C 0  0  0  0  0  0  0  0  0  0  0  0
    4.0760    0.5840   12.4740   C 0  0  0  0  0  0  0  0  0  0  0  0
    4.2760   -0.4770   11.8620   O 0  0  0  0  0  0  0  0  0  0  0  0
    4.7620    0.9370   13.5590   N 0  0  0  0  0  0  0  0  0  0  0  0
    5.8280    0.0830   14.1300   C 0  0  0  0  0  0  0  0  0  0  0  0
    7.1720    0.8230   14.0930   C 0  0  0  0  0  0  0  0  0  0  0  0
    7.5030    1.3940   12.7250   C 0  0  0  0  0  0  0  0  0  0  0  0
    7.4430    2.7600   12.5010   C 0  0  0  0  0  0  0  0  0  0  0  0
    7.7320    3.2910   11.2830   C 0  0  0  0  0  0  0  0  0  0  0  0
    7.8670    0.5650   11.6590   C 0  0  0  0  0  0  0  0  0  0  0  0
    8.1580    1.0900   10.4220   C 0  0  0  0  0  0  0  0  0  0  0  0
    8.0900    2.4590   10.2510   C 0  0  0  0  0  0  0  0  0  0  0  0
    8.3870    3.0540    9.0620   O 0  0  0  0  0  0  0  0  0  0  0  0
    7.8550    2.5870    7.8380   C 0  0  0  0  0  0  0  0  0  0  0  0
    5.4820   -0.3440   15.5620   C 0  0  0  0  0  0  0  0  0  0  0  0
    5.5310    0.7920   16.4260   O 0  0  0  0  0  0  0  0  0  0  0  0
    6.4660   -1.3970   16.0790   C 0  0  0  0  0  0  0  0  0  0  0  0
    6.2750   -2.7170   15.4530   N 0  0  0  0  0  0  0  0  0  0  0  0
    5.4210   -3.6300   16.2260   C 0  0  0  0  0  0  0  0  0  0  0  0
    4.1490   -3.7130   15.4020   C 0  0  0  0  0  0  0  0  0  0  0  0
    3.1700   -4.7920   15.8750   C 0  0  0  0  0  0  0  0  0  0  0  0
    2.7980   -4.5160   17.3240   C 0  0  0  0  0  0  0  0  0  0  0  0
    1.9470   -4.8430   14.9680   C 0  0  0  0  0  0  0  0  0  0  0  0
    7.4780   -3.3320   14.5100   S 0  0  0  0  0  0  0  0  0  0  0  0
    8.2000   -2.2340   13.8740   O 0  0  0  0  0  0  0  0  0  0  0  0
    6.8820   -4.1890   13.4940   O 0  0  0  0  0  0  0  0  0  0  0  0
    8.5160   -4.1960   15.4480   C 0  0  0  0  0  0  0  0  0  0  0  0
    9.5590   -3.5470   16.0840   C 0  0  0  0  0  0  0  0  0  0  0  0
    8.3080   -5.5440   15.7010   C 0  0  0  0  0  0  0  0  0  0  0  0
   10.3840   -4.2140   16.9740   C 0  0  0  0  0  0  0  0  0  0  0  0
    9.1310   -6.2260   16.5980   C 0  0  0  0  0  0  0  0  0  0  0  0
   10.1680   -5.5490   17.2290   C 0  0  0  0  0  0  0  0  0  0  0  0
   10.9710   -6.1750   18.1590   N 0  0  0  0  0  0  0  0  0  0  0  0
  1  2  1  0  0  0  0
  1  5  1  0  0  0  0
  2  3  1  0  0  0  0
  3  4  2  0  0  0  0
  3  7  1  0  0  0  0
  5  6  1  0  0  0  0
  6 24  1  0  0  0  0
  7  8  1  0  0  0  0
  8  9  1  0  0  0  0
  8 12  1  0  0  0  0
  9 10  1  0  0  0  0
  9 11  1  0  0  0  0
 12 13  2  0  0  0  0
 12 14  1  0  0  0  0
 14 15  1  0  0  0  0
 15 16  1  0  0  0  0
 15 25  1  0  0  0  0
 16 17  1  0  0  0  0
 17 18  2  0  0  0  0
 17 20  1  0  0  0  0
 18 19  1  0  0  0  0
 19 22  2  0  0  0  0
 20 21  2  0  0  0  0
 21 22  1  0  0  0  0
 22 23  1  0  0  0  0
 23 24  1  0  0  0  0
 25 26  1  0  0  0  0
 25 27  1  0  0  0  0
 27 28  1  0  0  0  0
 28 29  1  0  0  0  0
 28 34  1  0  0  0  0
 29 30  1  0  0  0  0
 30 31  1  0  0  0  0
 31 32  1  0  0  0  0
 31 33  1  0  0  0  0
 34 35  2  0  0  0  0
 34 36  2  0  0  0  0
 34 37  1  0  0  0  0
 37 38  2  0  0  0  0
 37 39  1  0  0  0  0
 38 40  1  0  0  0  0
 39 41  2  0  0  0  0
 40 42  2  0  0  0  0
 41 42  1  0  0  0  0
 42 43  1  0  0  0  0
M  END
>  <InstanceId>
1D4L_PI9_A_201

>  <ChemCompId>
PI9

>  <PdbId>
1D4L

>  <ChainId>
A

>  <ResidueNumber>
201

>  <InsertionCode>


>  <Model>
1

>  <AltIds>


>  <MissingHeavyAtoms>
0

>  <ObservedFormula>
C32 N4 O6 S

>  <Name>
(10S,13S,1'R)-13-[1'-HYDROXY-2'-(N-P-AMINOBENZENESULFONYL-1''-AMINO-3''-METHYLBUTYL)ETHYL]-8,11-DIOXO-10-ISOPROPYL-2-OXA-9,12-DIAZABICYCLO [13.2.2]NONADECA-15,17,18-TRIENE

>  <SystematicName>
4-amino-N-[(2R)-2-[(3S,6S)-5,8-dioxo-6-propan-2-yl-14-oxa-4,7-diazabicyclo[13.2.2]nonadeca-1(18),15(19),16-trien-3-yl]-2-hydroxy-ethyl]-N-(3-methylbutyl)benzenesulfonamide

>  <Synonyms>


>  <Type>
NON-POLYMER

>  <Formula>
C32 H48 N4 O6 S

>  <MolecularWeight>
616.812

>  <ModifiedDate>
2011-06-04

>  <Parent>


>  <OneLetterCode>


>  <SubcomponentList>


>  <AmbiguousFlag>
N

>  <InChI>
InChI=1S/C32H48N4O6S/c1-22(2)17-18-36(43(40,41)27-15-11-25(33)12-16-27)21-29(37)28-20-24-9-13-26(14-10-24)42-19-7-5-6-8-30(38)35-31(23(3)4)32(39)34-28/h9-16,22-23,28-29,31,37H,5-8,17-21,33H2,1-4H3,(H,34,39)(H,35,38)/t28-,29+,31-/m0/s1

>  <InChIKey>
FBNSKSOTNMECSA-FLBADVGZSA-N

>  <SMILES>
CC(C)CC[N@@](C[C@H]([C@@H]1Cc2ccc(cc2)OCCCCCC(=O)N[C@H](C(=O)N1)C(C)C)O)S(=O)(=O)c3ccc(cc3)N

$$$$
