4BCS_BTN_A_1128
  RCSB PDB08012021133D
Coordinates from PDB:4BCS:A:1128 Model:1 without hydrogens
 16 17  0  0  0  0            999 V2000
   69.0870   -8.7500   33.2670   C 0  0  0  0  0  0  0  0  0  0  0  0
   69.4980   -9.9130   33.6350   O 0  0  0  0  0  0  0  0  0  0  0  0
   68.4570   -8.5210   32.1890   O 0  0  0  0  0  0  0  0  0  0  0  0
   69.4250   -7.6330   34.2090   C 0  0  0  0  0  0  0  0  0  0  0  0
   68.7250   -6.2940   33.9190   C 0  0  0  0  0  0  0  0  0  0  0  0
   69.4490   -5.4340   32.8760   C 0  0  0  0  0  0  0  0  0  0  0  0
   68.6950   -4.1040   32.7450   C 0  0  0  0  0  0  0  0  0  0  0  0
   69.4840   -3.1720   31.7700   C 0  0  0  0  0  0  0  0  0  0  0  0
   70.9180   -2.4660   32.5580   S 0  0  0  0  0  0  0  0  0  0  0  0
   71.0720   -1.2710   31.2210   C 0  0  0  0  0  0  0  0  0  0  0  0
   69.6350   -0.9360   30.7680   C 0  0  0  0  0  0  0  0  0  0  0  0
   69.2110    0.2440   31.5170   N 0  0  0  0  0  0  0  0  0  0  0  0
   68.2030   -0.0270   32.3580   C 0  0  0  0  0  0  0  0  0  0  0  0
   67.6180    0.7920   33.0460   O 0  0  0  0  0  0  0  0  0  0  0  0
   67.8960   -1.3290   32.3060   N 0  0  0  0  0  0  0  0  0  0  0  0
   68.6420   -2.0140   31.2400   C 0  0  0  0  0  0  0  0  0  0  0  0
  1  2  2  0  0  0  0
  1  3  1  0  0  0  0
  1  4  1  0  0  0  0
  4  5  1  0  0  0  0
  5  6  1  0  0  0  0
  6  7  1  0  0  0  0
  7  8  1  0  0  0  0
  8  9  1  0  0  0  0
  8 16  1  0  0  0  0
  9 10  1  0  0  0  0
 10 11  1  0  0  0  0
 11 12  1  0  0  0  0
 11 16  1  0  0  0  0
 12 13  1  0  0  0  0
 13 14  2  0  0  0  0
 13 15  1  0  0  0  0
 15 16  1  0  0  0  0
M  END
>  <InstanceId>
4BCS_BTN_A_1128

>  <ChemCompId>
BTN

>  <PdbId>
4BCS

>  <ChainId>
A

>  <ResidueNumber>
1128

>  <InsertionCode>


>  <Model>
1

>  <AltIds>


>  <MissingHeavyAtoms>
0

>  <ObservedFormula>
C10 N2 O3 S

>  <Name>
BIOTIN

>  <SystematicName>
5-[(3aS,4S,6aR)-2-oxidanylidene-1,3,3a,4,6,6a-hexahydrothieno[3,4-d]imidazol-4-yl]pentanoic acid

>  <Synonyms>


>  <Type>
NON-POLYMER

>  <Formula>
C10 H16 N2 O3 S

>  <MolecularWeight>
244.311

>  <ModifiedDate>
2014-04-29

>  <Parent>


>  <OneLetterCode>


>  <SubcomponentList>


>  <AmbiguousFlag>
N

>  <InChI>
InChI=1S/C10H16N2O3S/c13-8(14)4-2-1-3-7-9-6(5-16-7)11-10(15)12-9/h6-7,9H,1-5H2,(H,13,14)(H2,11,12,15)/t6-,7-,9-/m0/s1

>  <InChIKey>
YBJHBAHKTGYVGT-ZKWXMUAHSA-N

>  <SMILES>
C1[C@H]2[C@@H]([C@@H](S1)CCCCC(=O)O)NC(=O)N2

$$$$
