1JMF_UMP_A_317
  RCSB PDB08012015143D
Coordinates from PDB:1JMF:A:317 Model:1 without hydrogens
 20 21  0  0  0  0            999 V2000
   14.7000   46.2250  -51.5450   N 0  0  0  0  0  0  0  0  0  0  0  0
   14.1990   44.9350  -51.3010   C 0  0  0  0  0  0  0  0  0  0  0  0
   13.2050   44.7180  -50.3860   N 0  0  0  0  0  0  0  0  0  0  0  0
   12.6180   45.6900  -49.6300   C 0  0  0  0  0  0  0  0  0  0  0  0
   13.1670   47.0690  -49.8880   C 0  0  0  0  0  0  0  0  0  0  0  0
   14.2180   47.2810  -50.8550   C 0  0  0  0  0  0  0  0  0  0  0  0
   14.5820   43.9050  -51.8200   O 0  0  0  0  0  0  0  0  0  0  0  0
   11.7630   45.2880  -48.8340   O 0  0  0  0  0  0  0  0  0  0  0  0
   15.5920   46.3810  -52.7540   C 0  0  0  0  0  0  0  0  0  0  0  0
   14.8940   46.1230  -54.0930   C 0  0  0  0  0  0  0  0  0  0  0  0
   15.9730   46.3300  -55.1410   C 0  0  0  0  0  0  0  0  0  0  0  0
   16.8350   47.4990  -54.6470   C 0  0  0  0  0  0  0  0  0  0  0  0
   16.7760   45.1580  -55.2110   O 0  0  0  0  0  0  0  0  0  0  0  0
   16.3780   47.6000  -53.1770   O 0  0  0  0  0  0  0  0  0  0  0  0
   16.5160   48.7610  -55.4490   C 0  0  0  0  0  0  0  0  0  0  0  0
   16.8950   48.5750  -56.8760   O 0  0  0  0  0  0  0  0  0  0  0  0
   15.9400   49.1560  -58.0410   P 0  0  0  0  0  0  0  0  0  0  0  0
   16.6270   49.3060  -59.3490   O 0  0  0  0  0  0  0  0  0  0  0  0
   14.9130   48.1150  -58.1330   O 0  0  0  0  0  0  0  0  0  0  0  0
   15.3230   50.4200  -57.6170   O 0  0  0  0  0  0  0  0  0  0  0  0
  1  2  1  0  0  0  0
  1  6  1  0  0  0  0
  1  9  1  0  0  0  0
  2  3  1  0  0  0  0
  2  7  2  0  0  0  0
  3  4  1  0  0  0  0
  4  5  1  0  0  0  0
  4  8  2  0  0  0  0
  5  6  2  0  0  0  0
  9 10  1  0  0  0  0
  9 14  1  0  0  0  0
 10 11  1  0  0  0  0
 11 12  1  0  0  0  0
 11 13  1  0  0  0  0
 12 14  1  0  0  0  0
 12 15  1  0  0  0  0
 15 16  1  0  0  0  0
 16 17  1  0  0  0  0
 17 18  2  0  0  0  0
 17 19  1  0  0  0  0
 17 20  1  0  0  0  0
M  END
>  <InstanceId>
1JMF_UMP_A_317

>  <ChemCompId>
UMP

>  <PdbId>
1JMF

>  <ChainId>
A

>  <ResidueNumber>
317

>  <InsertionCode>


>  <Model>
1

>  <AltIds>


>  <MissingHeavyAtoms>
0

>  <ObservedFormula>
C9 N2 O8 P

>  <Name>
2'-DEOXYURIDINE 5'-MONOPHOSPHATE

>  <SystematicName>
[(2R,3S,5R)-5-[2,4-bis(oxidanylidene)pyrimidin-1-yl]-3-oxidanyl-oxolan-2-yl]methyl dihydrogen phosphate

>  <Synonyms>
DUMP

>  <Type>
NON-POLYMER

>  <Formula>
C9 H13 N2 O8 P

>  <MolecularWeight>
308.182

>  <ModifiedDate>
2020-06-17

>  <Parent>


>  <OneLetterCode>
U

>  <SubcomponentList>


>  <AmbiguousFlag>
N

>  <InChI>
InChI=1S/C9H13N2O8P/c12-5-3-8(11-2-1-7(13)10-9(11)14)19-6(5)4-18-20(15,16)17/h1-2,5-6,8,12H,3-4H2,(H,10,13,14)(H2,15,16,17)/t5-,6+,8+/m0/s1

>  <InChIKey>
JSRLJPSBLDHEIO-SHYZEUOFSA-N

>  <SMILES>
C1[C@@H]([C@H](O[C@H]1N2C=CC(=O)NC2=O)COP(=O)(O)O)O

$$$$
