6CBF_EWD_A_201
  RCSB PDB08022004123D
Coordinates from PDB:6CBF:A:201 Model:1 without hydrogens
 21 23  0  0  0  0            999 V2000
   12.9700    9.7700    2.9040   C 0  0  0  0  0  0  0  0  0  0  0  0
   12.8940   10.1550    1.5670   C 0  0  0  0  0  0  0  0  0  0  0  0
   11.6820   10.1090    0.8720   C 0  0  0  0  0  0  0  0  0  0  0  0
   10.5230    9.6790    1.5160   C 0  0  0  0  0  0  0  0  0  0  0  0
   10.6190    9.2820    2.8490   C 0  0  0  0  0  0  0  0  0  0  0  0
   11.8240    9.3290    3.5400   C 0  0  0  0  0  0  0  0  0  0  0  0
   14.2630    9.8150    3.6380   C 0  0  0  0  0  0  0  0  0  0  0  0
   14.4390   10.0110    5.0010   C 0  0  0  0  0  0  0  0  0  0  0  0
   15.7610    9.9840    5.2750   N 0  0  0  0  0  0  0  0  0  0  0  0
   16.4040    9.7610    4.0600   N 0  0  0  0  0  0  0  0  0  0  0  0
   15.5120    9.6560    3.0680   C 0  0  0  0  0  0  0  0  0  0  0  0
    9.4260    8.8140    3.6170   C 0  0  0  0  0  0  0  0  0  0  0  0
    9.1150    7.6070    3.5720   O 0  0  0  0  0  0  0  0  0  0  0  0
    8.8020    9.6570    4.2990   O 0  0  0  0  0  0  0  0  0  0  0  0
    9.3150    9.5950    0.8410   O 0  0  0  0  0  0  0  0  0  0  0  0
    8.5180   10.6230    0.3670   C 0  0  0  0  0  0  0  0  0  0  0  0
    8.4850   11.8910    0.9650   C 0  0  0  0  0  0  0  0  0  0  0  0
    7.6530   12.8830    0.4420   C 0  0  0  0  0  0  0  0  0  0  0  0
    6.8510   12.6140   -0.6700   C 0  0  0  0  0  0  0  0  0  0  0  0
    6.8730   11.3540   -1.2620   C 0  0  0  0  0  0  0  0  0  0  0  0
    7.6990   10.3610   -0.7390   C 0  0  0  0  0  0  0  0  0  0  0  0
 20 21  2  0  0  0  0
 20 19  1  0  0  0  0
 21 16  1  0  0  0  0
 19 18  2  0  0  0  0
 16 15  1  0  0  0  0
 16 17  2  0  0  0  0
 18 17  1  0  0  0  0
 15  4  1  0  0  0  0
  3  4  2  0  0  0  0
  3  2  1  0  0  0  0
  4  5  1  0  0  0  0
  2  1  2  0  0  0  0
  5  6  2  0  0  0  0
  5 12  1  0  0  0  0
  1  6  1  0  0  0  0
  1  7  1  0  0  0  0
 11  7  1  0  0  0  0
 11 10  2  0  0  0  0
 13 12  2  0  0  0  0
 12 14  1  0  0  0  0
  7  8  2  0  0  0  0
 10  9  1  0  0  0  0
  8  9  1  0  0  0  0
M  END
>  <InstanceId>
6CBF_EWD_A_201

>  <ChemCompId>
EWD

>  <PdbId>
6CBF

>  <ChainId>
A

>  <ResidueNumber>
201

>  <InsertionCode>


>  <Model>
1

>  <AltIds>


>  <MissingHeavyAtoms>
0

>  <ObservedFormula>
C16 N2 O3

>  <Name>
2-phenoxy-5-(1H-pyrazol-4-yl)benzoic acid

>  <SystematicName>
2-phenoxy-5-(1~{H}-pyrazol-4-yl)benzoic acid

>  <Synonyms>


>  <Type>
NON-POLYMER

>  <Formula>
C16 H12 N2 O3

>  <MolecularWeight>
280.278

>  <ModifiedDate>
2018-03-29

>  <Parent>


>  <OneLetterCode>


>  <SubcomponentList>


>  <AmbiguousFlag>
N

>  <InChI>
InChI=1S/C16H12N2O3/c19-16(20)14-8-11(12-9-17-18-10-12)6-7-15(14)21-13-4-2-1-3-5-13/h1-10H,(H,17,18)(H,19,20)

>  <InChIKey>
GTIPHUDSAYUQQM-UHFFFAOYSA-N

>  <SMILES>
c1ccc(cc1)Oc2ccc(cc2C(=O)O)c3c[nH]nc3

$$$$
