1D4J_MSC_B_501
  RCSB PDB08012014443D
Coordinates from PDB:1D4J:B:501 Model:1 without hydrogens
 47 51  0  0  0  0            999 V2000
   13.7860   23.1580    4.9980   C 0  0  0  0  0  0  0  0  0  0  0  0
   14.3350   22.9260    3.6740   O 0  0  0  0  0  0  0  0  0  0  0  0
   14.7900   22.7960    6.0680   C 0  0  0  0  0  0  0  0  0  0  0  0
   14.2510   23.0570    7.3900   O 0  0  0  0  0  0  0  0  0  0  0  0
   15.2630   23.5020    8.3230   C 0  0  0  0  0  0  0  0  0  0  0  0
   16.1900   22.3940    8.8110   C 0  0  0  0  0  0  0  0  0  0  0  0
   15.6450   21.2450    9.5150   C 0  0  0  0  0  0  0  0  0  0  0  0
   16.5100   20.1500    9.8810   C 0  0  0  0  0  0  0  0  0  0  0  0
   17.9120   20.2020    9.5550   C 0  0  0  0  0  0  0  0  0  0  0  0
   18.4580   21.3460    8.8680   C 0  0  0  0  0  0  0  0  0  0  0  0
   17.6020   22.4390    8.4980   C 0  0  0  0  0  0  0  0  0  0  0  0
   15.0120   21.3170    5.9040   C 0  0  0  0  0  0  0  0  0  0  0  0
   14.0880   20.5230    6.1020   O 0  0  0  0  0  0  0  0  0  0  0  0
   16.2780   20.8780    5.5500   N 0  0  0  0  0  0  0  0  0  0  0  0
   16.5960   19.4710    5.3810   C 0  0  0  0  0  0  0  0  0  0  0  0
   16.5490   19.0090    3.9430   C 0  0  0  0  0  0  0  0  0  0  0  0
   15.6850   19.4260    2.8670   C 0  0  0  0  0  0  0  0  0  0  0  0
   15.8420   18.8290    1.5600   C 0  0  0  0  0  0  0  0  0  0  0  0
   16.8610   17.8330    1.3390   C 0  0  0  0  0  0  0  0  0  0  0  0
   17.7340   17.4190    2.4050   C 0  0  0  0  0  0  0  0  0  0  0  0
   17.5660   18.0170    3.7000   C 0  0  0  0  0  0  0  0  0  0  0  0
   18.3520   17.7670    4.9470   C 0  0  0  0  0  0  0  0  0  0  0  0
   18.0250   19.0360    5.7700   C 0  0  0  0  0  0  0  0  0  0  0  0
   18.9240   20.0960    5.4380   O 0  0  0  0  0  0  0  0  0  0  0  0
   13.3030   24.5970    5.0800   C 0  0  0  0  0  0  0  0  0  0  0  0
   14.3440   25.4340    4.5040   O 0  0  0  0  0  0  0  0  0  0  0  0
   11.9720   24.8490    4.3690   C 0  0  0  0  0  0  0  0  0  0  0  0
   11.8030   23.9510    3.2470   O 0  0  0  0  0  0  0  0  0  0  0  0
   11.0930   24.5490    2.1420   C 0  0  0  0  0  0  0  0  0  0  0  0
    9.5860   24.4550    2.2690   C 0  0  0  0  0  0  0  0  0  0  0  0
    8.7630   25.6170    2.0110   C 0  0  0  0  0  0  0  0  0  0  0  0
    7.3430   25.5500    2.2250   C 0  0  0  0  0  0  0  0  0  0  0  0
    6.7430   24.3280    2.6850   C 0  0  0  0  0  0  0  0  0  0  0  0
    7.5520   23.1650    2.9330   C 0  0  0  0  0  0  0  0  0  0  0  0
    8.9700   23.2200    2.7260   C 0  0  0  0  0  0  0  0  0  0  0  0
   10.8600   24.6210    5.3830   C 0  0  0  0  0  0  0  0  0  0  0  0
   10.7510   23.5470    5.9790   O 0  0  0  0  0  0  0  0  0  0  0  0
    9.9250   25.6200    5.5690   N 0  0  0  0  0  0  0  0  0  0  0  0
    8.8250   25.4870    6.5160   C 0  0  0  0  0  0  0  0  0  0  0  0
    8.4100   26.6510    7.2790   C 0  0  0  0  0  0  0  0  0  0  0  0
    7.1440   27.2950    7.0090   C 0  0  0  0  0  0  0  0  0  0  0  0
    6.7630   28.4770    7.7560   C 0  0  0  0  0  0  0  0  0  0  0  0
    7.6410   29.0110    8.7650   C 0  0  0  0  0  0  0  0  0  0  0  0
    8.8990   28.3760    9.0380   C 0  0  0  0  0  0  0  0  0  0  0  0
    9.2820   27.1930    8.2920   C 0  0  0  0  0  0  0  0  0  0  0  0
   11.0590   26.2810    8.6730  Cl 0  0  0  0  0  0  0  0  0  0  0  0
    6.3390   26.8210    6.0630   F 0  0  0  0  0  0  0  0  0  0  0  0
  1  2  1  0  0  0  0
  1  3  1  0  0  0  0
  1 25  1  0  0  0  0
  3  4  1  0  0  0  0
  3 12  1  0  0  0  0
  4  5  1  0  0  0  0
  5  6  1  0  0  0  0
  6  7  2  0  0  0  0
  6 11  1  0  0  0  0
  7  8  1  0  0  0  0
  8  9  2  0  0  0  0
  9 10  1  0  0  0  0
 10 11  2  0  0  0  0
 12 13  2  0  0  0  0
 12 14  1  0  0  0  0
 14 15  1  0  0  0  0
 15 16  1  0  0  0  0
 15 23  1  0  0  0  0
 16 17  2  0  0  0  0
 16 21  1  0  0  0  0
 17 18  1  0  0  0  0
 18 19  2  0  0  0  0
 19 20  1  0  0  0  0
 20 21  2  0  0  0  0
 21 22  1  0  0  0  0
 22 23  1  0  0  0  0
 23 24  1  0  0  0  0
 25 26  1  0  0  0  0
 25 27  1  0  0  0  0
 27 28  1  0  0  0  0
 27 36  1  0  0  0  0
 28 29  1  0  0  0  0
 29 30  1  0  0  0  0
 30 31  2  0  0  0  0
 30 35  1  0  0  0  0
 31 32  1  0  0  0  0
 32 33  2  0  0  0  0
 33 34  1  0  0  0  0
 34 35  2  0  0  0  0
 36 37  2  0  0  0  0
 36 38  1  0  0  0  0
 38 39  1  0  0  0  0
 39 40  1  0  0  0  0
 40 41  2  0  0  0  0
 40 45  1  0  0  0  0
 41 42  1  0  0  0  0
 41 47  1  0  0  0  0
 42 43  2  0  0  0  0
 43 44  1  0  0  0  0
 44 45  2  0  0  0  0
 45 46  1  0  0  0  0
M  END
>  <InstanceId>
1D4J_MSC_B_501

>  <ChemCompId>
MSC

>  <PdbId>
1D4J

>  <ChainId>
B

>  <ResidueNumber>
501

>  <InsertionCode>


>  <Model>
1

>  <AltIds>


>  <MissingHeavyAtoms>
0

>  <ObservedFormula>
C36 N2 O7 F Cl

>  <Name>
2,5-DIBENZYLOXY-3,4-DIHYDROXY-HEXANEDIOIC ACID 2-CHLORO-6-FLUORO-BENZYLAMIDE (2-HYDROXY-INDAN-1- YL)-AMIDE

>  <SystematicName>
(2R,3R,4R,5R)-N-[(2-chloro-6-fluoro-phenyl)methyl]-3,4-dihydroxy-N'-[(1S,2R)-2-hydroxy-2,3-dihydro-1H-inden-1-yl]-2,5-bis(phenylmethoxy)hexanediamide

>  <Synonyms>
INHIBITOR MSL370

>  <Type>
NON-POLYMER

>  <Formula>
C36 H36 Cl F N2 O7

>  <MolecularWeight>
663.132

>  <ModifiedDate>
2011-06-04

>  <Parent>


>  <OneLetterCode>


>  <SubcomponentList>


>  <AmbiguousFlag>
N

>  <InChI>
InChI=1S/C36H36ClFN2O7/c37-27-16-9-17-28(38)26(27)19-39-35(44)33(46-20-22-10-3-1-4-11-22)31(42)32(43)34(47-21-23-12-5-2-6-13-23)36(45)40-30-25-15-8-7-14-24(25)18-29(30)41/h1-17,29-34,41-43H,18-21H2,(H,39,44)(H,40,45)/t29-,30+,31-,32-,33-,34-/m1/s1

>  <InChIKey>
BVPTXJDSYPTXMO-VQEIZDKSSA-N

>  <SMILES>
c1ccc(cc1)CO[C@H]([C@@H]([C@H]([C@H](C(=O)N[C@H]2c3ccccc3C[C@H]2O)OCc4ccccc4)O)O)C(=O)NCc5c(cccc5Cl)F

$$$$
