5G1Z_U53_A_1001
  RCSB PDB08022001273D
Coordinates from PDB:5G1Z:A:1001 Model:1 without hydrogens
 22 23  0  0  0  0            999 V2000
   20.5350   46.0700   59.5550   O 0  0  0  0  0  0  0  0  0  0  0  0
   20.3970   45.9840   60.7600   C 0  0  0  0  0  0  0  0  0  0  0  0
   19.0560   45.8180   61.2380   O 0  0  0  0  0  0  0  0  0  0  0  0
   18.0030   46.0600   60.2840   C 0  0  0  0  0  0  0  0  0  0  0  0
   17.6260   47.5080   60.2950   C 0  0  0  0  0  0  0  0  0  0  0  0
   21.5960   46.3240   61.5580   C 0  0  0  0  0  0  0  0  0  0  0  0
   21.4920   47.2510   62.5740   C 0  0  0  0  0  0  0  0  0  0  0  0
   22.5300   47.6500   63.3100   N 0  0  0  0  0  0  0  0  0  0  0  0
   23.7860   47.2650   63.0250   C 0  0  0  0  0  0  0  0  0  0  0  0
   24.8570   47.7330   63.7830   C 0  0  0  0  0  0  0  0  0  0  0  0
   26.0930   47.2330   63.4300   C 0  0  0  0  0  0  0  0  0  0  0  0
   22.8920   45.8260   61.1470   C 0  0  0  0  0  0  0  0  0  0  0  0
   23.1080   44.6540   59.9200   S 0  0  0  0  0  0  0  0  0  0  0  0
   23.9230   43.2040   60.5450   C 0  0  0  0  0  0  0  0  0  0  0  0
   23.2320   42.8750   61.8600   C 0  0  0  0  0  0  0  0  0  0  0  0
   21.8580   42.5190   61.6220   C 0  0  0  0  0  0  0  0  0  0  0  0
   20.7520   42.3060   61.3610   N 0  0  0  0  0  0  0  0  0  0  0  0
   24.0200   46.3250   61.9280   C 0  0  0  0  0  0  0  0  0  0  0  0
   25.2730   45.8710   61.6170   C 0  0  0  0  0  0  0  0  0  0  0  0
   26.3130   46.3330   62.3710   C 0  0  0  0  0  0  0  0  0  0  0  0
   27.5720   45.8490   62.0450   O 0  0  0  0  0  0  0  0  0  0  0  0
   27.7160   44.9330   60.9250   C 0  0  0  0  0  0  0  0  0  0  0  0
  1  2  2  0  0  0  0
 13 14  1  0  0  0  0
 13 12  1  0  0  0  0
  4  5  1  0  0  0  0
  4  3  1  0  0  0  0
 14 15  1  0  0  0  0
  2  3  1  0  0  0  0
  2  6  1  0  0  0  0
 22 21  1  0  0  0  0
 12  6  2  0  0  0  0
 12 18  1  0  0  0  0
 17 16  3  0  0  0  0
  6  7  1  0  0  0  0
 19 18  2  0  0  0  0
 19 20  1  0  0  0  0
 16 15  1  0  0  0  0
 18  9  1  0  0  0  0
 21 20  1  0  0  0  0
 20 11  2  0  0  0  0
  7  8  2  0  0  0  0
  9  8  1  0  0  0  0
  9 10  2  0  0  0  0
 11 10  1  0  0  0  0
M  END
>  <InstanceId>
5G1Z_U53_A_1001

>  <ChemCompId>
U53

>  <PdbId>
5G1Z

>  <ChainId>
A

>  <ResidueNumber>
1001

>  <InsertionCode>


>  <Model>
1

>  <AltIds>


>  <MissingHeavyAtoms>
0

>  <ObservedFormula>
C16 N2 O3 S

>  <Name>
ethyl 4-(2-cyanoethylsulfanyl)-6-methoxy-quinoline-3-carboxylate

>  <SystematicName>
ethyl 4-(2-cyanoethylsulfanyl)-6-methoxy-quinoline-3-carboxylate

>  <Synonyms>


>  <Type>
NON-POLYMER

>  <Formula>
C16 H16 N2 O3 S

>  <MolecularWeight>
316.375

>  <ModifiedDate>
2017-02-10

>  <Parent>


>  <OneLetterCode>


>  <SubcomponentList>


>  <AmbiguousFlag>
N

>  <InChI>
InChI=1S/C16H16N2O3S/c1-3-21-16(19)13-10-18-14-6-5-11(20-2)9-12(14)15(13)22-8-4-7-17/h5-6,9-10H,3-4,8H2,1-2H3

>  <InChIKey>
TZDUQSHGGUOAJU-UHFFFAOYSA-N

>  <SMILES>
CCOC(=O)c1cnc2ccc(cc2c1SCCC#N)OC

$$$$
