5YJM_8W3_A_304
  RCSB PDB08022003453D
Coordinates from PDB:5YJM:A:304 Model:1 without hydrogens
 42 45  0  0  0  0            999 V2000
   -9.5190  -16.7380   -6.0850   C 0  0  0  0  0  0  0  0  0  0  0  0
   -8.5670  -17.2150   -5.4810   O 0  0  0  0  0  0  0  0  0  0  0  0
  -14.0620  -15.1080   -0.4390  Cl 0  0  0  0  0  0  0  0  0  0  0  0
  -13.0530  -14.4950   -1.5850   C 0  0  0  0  0  0  0  0  0  0  0  0
  -12.1690  -15.3190   -2.2700   C 0  0  0  0  0  0  0  0  0  0  0  0
  -13.1250  -13.1220   -1.7910   C 0  0  0  0  0  0  0  0  0  0  0  0
  -12.2810  -12.5790   -2.7430   C 0  0  0  0  0  0  0  0  0  0  0  0
  -11.3480  -13.3640   -3.4580   C 0  0  0  0  0  0  0  0  0  0  0  0
  -10.4990  -12.9840   -4.4580   O 0  0  0  0  0  0  0  0  0  0  0  0
  -10.3870  -11.6340   -4.8920   C 0  0  0  0  0  0  0  0  0  0  0  0
  -11.2990  -14.7250   -3.1850   C 0  0  0  0  0  0  0  0  0  0  0  0
  -10.3050  -15.5350   -3.9220   C 0  0  0  0  0  0  0  0  0  0  0  0
  -10.6310  -16.0430   -5.3110   C 0  0  0  0  0  0  0  0  0  0  0  0
  -12.0540  -16.5900   -5.4820   C 0  0  0  0  0  0  0  0  0  0  0  0
  -12.6080  -16.8510   -6.7640   N 0  0  0  0  0  0  0  0  0  0  0  0
  -12.0880  -16.6140   -7.9950   C 0  0  0  0  0  0  0  0  0  0  0  0
  -12.7030  -16.8990   -9.0550   N 0  0  0  0  0  0  0  0  0  0  0  0
  -14.0150  -17.3690   -8.7790   O 0  0  0  0  0  0  0  0  0  0  0  0
  -14.7490  -17.8590   -9.8090   C 0  0  0  0  0  0  0  0  0  0  0  0
  -14.3150  -17.9490  -11.1410   C 0  0  0  0  0  0  0  0  0  0  0  0
  -15.1720  -18.5280  -12.1090   C 0  0  0  0  0  0  0  0  0  0  0  0
  -16.3980  -19.0910  -11.7520   C 0  0  0  0  0  0  0  0  0  0  0  0
  -16.8140  -19.0120  -10.4190   C 0  0  0  0  0  0  0  0  0  0  0  0
  -15.9740  -18.4430   -9.4570   C 0  0  0  0  0  0  0  0  0  0  0  0
  -10.7090  -16.0340   -8.1670   C 0  0  0  0  0  0  0  0  0  0  0  0
   -9.6840  -16.8250   -7.4700   N 0  0  0  0  0  0  0  0  0  0  0  0
   -8.8430  -17.5560   -8.3230   C 0  0  0  0  0  0  0  0  0  0  0  0
   -9.0200  -17.5890   -9.4980   O 0  0  0  0  0  0  0  0  0  0  0  0
   -7.8980  -18.3130   -7.8050   N 0  0  0  0  0  0  0  0  0  0  0  0
   -6.9490  -19.0970   -8.5830   C 0  0  0  0  0  0  0  0  0  0  0  0
   -7.5160  -20.5220   -8.6790   C 0  0  0  0  0  0  0  0  0  0  0  0
   -6.5380  -21.5710   -8.4190   C 0  0  0  0  0  0  0  0  0  0  0  0
   -5.7180  -18.6270   -7.8580   C 0  0  0  0  0  0  0  0  0  0  0  0
   -5.2130  -19.2200   -6.6610   C 0  0  0  0  0  0  0  0  0  0  0  0
   -4.1040  -18.6970   -5.9890   C 0  0  0  0  0  0  0  0  0  0  0  0
   -3.6310  -19.3830   -4.8860   N 0  0  0  0  0  0  0  0  0  0  0  0
   -5.1300  -17.4280   -8.3030   C 0  0  0  0  0  0  0  0  0  0  0  0
   -4.0350  -16.8730   -7.6310   C 0  0  0  0  0  0  0  0  0  0  0  0
   -3.4920  -17.4920   -6.4720   C 0  0  0  0  0  0  0  0  0  0  0  0
   -2.3010  -16.8220   -5.8110   C 0  0  0  0  0  0  0  0  0  0  0  0
   -1.8130  -15.7440   -6.2960   O 0  0  0  0  0  0  0  0  0  0  0  0
   -1.8000  -17.3640   -4.7770   O 0  0  0  0  0  0  0  0  0  0  0  0
 21 22  2  0  0  0  0
 21 20  1  0  0  0  0
 22 23  1  0  0  0  0
 20 19  2  0  0  0  0
 23 24  2  0  0  0  0
 19 24  1  0  0  0  0
 19 18  1  0  0  0  0
 28 27  2  0  0  0  0
 17 18  1  0  0  0  0
 17 16  2  0  0  0  0
 31 30  1  0  0  0  0
 31 32  1  0  0  0  0
 30 33  1  0  0  0  0
 30 29  1  0  0  0  0
 27 29  1  0  0  0  0
 27 26  1  0  0  0  0
 37 33  2  0  0  0  0
 37 38  1  0  0  0  0
 25 16  1  0  0  0  0
 25 26  1  0  0  0  0
 16 15  1  0  0  0  0
 33 34  1  0  0  0  0
 38 39  2  0  0  0  0
 26  1  1  0  0  0  0
 15 14  1  0  0  0  0
 34 35  2  0  0  0  0
 39 35  1  0  0  0  0
 39 40  1  0  0  0  0
 41 40  2  0  0  0  0
  1  2  2  0  0  0  0
  1 13  1  0  0  0  0
 35 36  1  0  0  0  0
 40 42  1  0  0  0  0
 14 13  1  0  0  0  0
 13 12  1  0  0  0  0
 10  9  1  0  0  0  0
  9  8  1  0  0  0  0
 12 11  1  0  0  0  0
  8 11  2  0  0  0  0
  8  7  1  0  0  0  0
 11  5  1  0  0  0  0
  7  6  2  0  0  0  0
  5  4  2  0  0  0  0
  6  4  1  0  0  0  0
  4  3  1  0  0  0  0
M  END
>  <InstanceId>
5YJM_8W3_A_304

>  <ChemCompId>
8W3

>  <PdbId>
5YJM

>  <ChainId>
A

>  <ResidueNumber>
304

>  <InsertionCode>


>  <Model>
1

>  <AltIds>


>  <MissingHeavyAtoms>
0

>  <ObservedFormula>
C30 N5 O6 Cl

>  <Name>
2-amino-4-((R)-1-((R,Z)-6-(5-chloro-2-methoxybenzyl)-7-oxo-3-(phenoxyimino)-1,4-diazepane-1-carboxamido)propyl)benzoic acid

>  <SystematicName>
2-azanyl-4-[(1~{R})-1-[[(3~{Z},6~{R})-6-[(5-chloranyl-2-methoxy-phenyl)methyl]-7-oxidanylidene-3-phenoxyimino-1,4-diazepan-1-yl]carbonylamino]propyl]benzoic acid

>  <Synonyms>
2-azanyl-4-[(1R)-1-[[(3Z,6R)-6-[(5-chloranyl-2-methoxy-phenyl)methyl]-7-oxidanylidene-3-phenoxyimino-1,4-diazepan-1-yl] carbonylamino]propyl]benzoic acid

>  <Type>
NON-POLYMER

>  <Formula>
C30 H32 Cl N5 O6

>  <MolecularWeight>
594.058

>  <ModifiedDate>
2020-06-17

>  <Parent>


>  <OneLetterCode>


>  <SubcomponentList>


>  <AmbiguousFlag>
N

>  <InChI>
InChI=1S/C30H32ClN5O6/c1-3-25(18-9-11-23(29(38)39)24(32)15-18)34-30(40)36-17-27(35-42-22-7-5-4-6-8-22)33-16-20(28(36)37)13-19-14-21(31)10-12-26(19)41-2/h4-12,14-15,20,25H,3,13,16-17,32H2,1-2H3,(H,33,35)(H,34,40)(H,38,39)/t20-,25-/m1/s1

>  <InChIKey>
LHASZEBEQGPCFM-CJFMBICVSA-N

>  <SMILES>
CC[C@H](c1ccc(c(c1)N)C(=O)O)NC(=O)N2C/C(=N/Oc3ccccc3)/NC[C@H](C2=O)Cc4cc(ccc4OC)Cl

$$$$
