2AVM_2NC_B_300
  RCSB PDB08012016383D
Coordinates from PDB:2AVM:B:300 Model:1 without hydrogens
 54 53  0  0  0  0            999 V2000
   23.6060   24.5170   19.8460   C 0  0  0  0  0  0  0  0  0  0  0  0
   23.2990   25.0150   20.9200   O 0  0  0  0  0  0  0  0  0  0  0  0
   24.2680   23.1690   19.7490   C 0  0  0  0  0  0  0  0  0  0  0  0
   23.4440   25.1760   18.7050   N 0  0  0  0  0  0  0  0  0  0  0  0
   22.9160   26.5230   18.6440   C 0  0  0  0  0  0  0  0  0  0  0  0
   21.5280   26.5950   17.9700   C 0  0  0  0  0  0  0  0  0  0  0  0
   20.8870   27.6570   18.0320   O 0  0  0  0  0  0  0  0  0  0  0  0
   23.8470   27.4840   17.8810   C 0  0  0  0  0  0  0  0  0  0  0  0
   24.0260   26.9670   16.5740   O 0  0  0  0  0  0  0  0  0  0  0  0
   25.1910   27.5640   18.6400   C 0  0  0  0  0  0  0  0  0  0  0  0
   21.0350   25.5200   17.3700   N 0  0  0  0  0  0  0  0  0  0  0  0
   19.7660   25.4970   16.6560   C 0  0  0  0  0  0  0  0  0  0  0  0
   18.8780   24.4320   17.2750   C 0  0  0  0  0  0  0  0  0  0  0  0
   18.8770   23.2950   16.8110   O 0  0  0  0  0  0  0  0  0  0  0  0
   19.9320   25.3050   15.1440   C 0  0  0  0  0  0  0  0  0  0  0  0
   20.9720   26.2280   14.5160   C 0  0  0  0  0  0  0  0  0  0  0  0
   18.5990   25.4250   14.4490   C 0  0  0  0  0  0  0  0  0  0  0  0
   20.6700   27.7010   14.5590   C 0  0  0  0  0  0  0  0  0  0  0  0
   18.1930   24.7580   18.3390   N 0  0  0  0  0  0  0  0  0  0  0  0
   17.4570   23.7980   19.1540   C 0  0  0  0  0  0  0  0  0  0  0  0
   15.9800   23.8080   18.8260   C 0  0  0  0  0  0  0  0  0  0  0  0
   17.7590   24.0130   20.6390   C 0  0  0  0  0  0  0  0  0  0  0  0
   19.1990   24.0410   21.0050   C 0  0  0  0  0  0  0  0  0  0  0  0
   20.0060   22.8290   20.5870   C 0  0  0  0  0  0  0  0  0  0  0  0
   19.4480   21.5210   21.1120   C 0  0  0  0  0  0  0  0  0  0  0  0
   15.6130   23.6820   17.4680   N 0  0  0  0  0  0  0  0  0  0  0  0
   14.3540   22.9780   17.0910   C 0  0  0  0  0  0  0  0  0  0  0  0
   14.3550   21.5300   17.5680   C 0  0  0  0  0  0  0  0  0  0  0  0
   15.3610   20.8000   17.5100   O 0  0  0  0  0  0  0  0  0  0  0  0
   13.9730   23.1030   15.6420   C 0  0  0  0  0  0  0  0  0  0  0  0
   14.8170   22.1120   14.8540   C 0  0  0  0  0  0  0  0  0  0  0  0
   13.9070   21.6730   13.7190   C 0  0  0  0  0  0  0  0  0  0  0  0
   14.7870   21.2680   12.5400   C 0  0  0  0  0  0  0  0  0  0  0  0
   13.2200   21.0430   18.0020   N 0  0  0  0  0  0  0  0  0  0  0  0
   13.0740   19.6400   18.4290   C 0  0  0  0  0  0  0  0  0  0  0  0
   11.6760   19.1780   18.0740   C 0  0  0  0  0  0  0  0  0  0  0  0
   10.6920   19.8570   18.3650   O 0  0  0  0  0  0  0  0  0  0  0  0
   13.4330   19.4830   19.8880   C 0  0  0  0  0  0  0  0  0  0  0  0
   13.2330   18.0880   20.4300   C 0  0  0  0  0  0  0  0  0  0  0  0
   11.8220   17.8060   20.9130   C 0  0  0  0  0  0  0  0  0  0  0  0
   11.1400   18.7160   21.3300   O 0  0  0  0  0  0  0  0  0  0  0  0
   11.3980   16.5690   20.8650   N 0  0  0  0  0  0  0  0  0  0  0  0
   11.5780   17.9810   17.5590   N 0  0  0  0  0  0  0  0  0  0  0  0
   10.3270   17.3550   17.1860   C 0  0  0  0  0  0  0  0  0  0  0  0
   10.2200   15.9850   17.8450   C 0  0  0  0  0  0  0  0  0  0  0  0
   11.1900   15.2160   17.8580   O 0  0  0  0  0  0  0  0  0  0  0  0
   10.2320   17.2500   15.6740   C 0  0  0  0  0  0  0  0  0  0  0  0
   10.4460   18.5620   14.9250   C 0  0  0  0  0  0  0  0  0  0  0  0
   10.5570   18.4040   13.4210   C 0  0  0  0  0  0  0  0  0  0  0  0
    9.3630   17.7970   12.8330   N 0  0  0  0  0  0  0  0  0  0  0  0
    9.0360   17.5230   11.6030   C 0  0  0  0  0  0  0  0  0  0  0  0
    9.9180   17.8220   10.6700   N 0  0  0  0  0  0  0  0  0  0  0  0
    7.8780   16.9620   11.2650   N 0  3  0  0  0  0  0  0  0  0  0  0
    9.0290   15.6390   18.3410   N 0  0  0  0  0  0  0  0  0  0  0  0
  1  2  2  0  0  0  0
  1  3  1  0  0  0  0
  4  5  1  0  0  0  0
  5  6  1  0  0  0  0
  5  8  1  0  0  0  0
  6  7  2  0  0  0  0
  8  9  1  0  0  0  0
  8 10  1  0  0  0  0
 11 12  1  0  0  0  0
 12 13  1  0  0  0  0
 12 15  1  0  0  0  0
 13 14  2  0  0  0  0
 15 16  1  0  0  0  0
 15 17  1  0  0  0  0
 16 18  1  0  0  0  0
 19 20  1  0  0  0  0
 20 21  1  0  0  0  0
 20 22  1  0  0  0  0
 22 23  1  0  0  0  0
 23 24  1  0  0  0  0
 24 25  1  0  0  0  0
 26 27  1  0  0  0  0
 27 28  1  0  0  0  0
 27 30  1  0  0  0  0
 28 29  2  0  0  0  0
 30 31  1  0  0  0  0
 31 32  1  0  0  0  0
 32 33  1  0  0  0  0
 34 35  1  0  0  0  0
 35 36  1  0  0  0  0
 35 38  1  0  0  0  0
 36 37  2  0  0  0  0
 38 39  1  0  0  0  0
 39 40  1  0  0  0  0
 40 41  2  0  0  0  0
 40 42  1  0  0  0  0
 43 44  1  0  0  0  0
 44 45  1  0  0  0  0
 44 47  1  0  0  0  0
 45 46  2  0  0  0  0
 47 48  1  0  0  0  0
 48 49  1  0  0  0  0
 49 50  1  0  0  0  0
 50 51  1  0  0  0  0
 51 52  1  0  0  0  0
 51 53  2  0  0  0  0
  1  4  1  0  0  0  0
  6 11  1  0  0  0  0
 13 19  1  0  0  0  0
 21 26  1  0  0  0  0
 28 34  1  0  0  0  0
 36 43  1  0  0  0  0
 45 54  1  0  0  0  0
M  CHG  1  53   1
M  END
>  <InstanceId>
2AVM_2NC_B_300

>  <ChemCompId>
2NC

>  <PdbId>
2AVM

>  <ChainId>
B

>  <ResidueNumber>
300

>  <InsertionCode>


>  <Model>
1

>  <AltIds>


>  <MissingHeavyAtoms>
0

>  <ObservedFormula>
C35 N11 O8

>  <Name>
N-{(2S)-2-[(N-acetyl-L-threonyl-L-isoleucyl)amino]hexyl}-L-norleucyl-L-glutaminyl-N~5~-[amino(iminio)methyl]-L-ornithinamide

>  <SystematicName>
[[[(4S)-4-[[(2S)-2-[[(2S)-2-[[(2S)-2-[[(2S,3S)-2-[[(2S,3R)-2-acetamido-3-hydroxy-butanoyl]amino]-3-methyl-pentanoyl]amino]hexyl]amino]hexanoyl]amino]-5-azanyl-5-oxo-pentanoyl]amino]-5-azanyl-5-oxo-pentyl]amino]-azanyl-methylidene]azanium

>  <Synonyms>
p2/NC

>  <Type>
peptide-like

>  <Formula>
C35 H68 N11 O8

>  <MolecularWeight>
770.983

>  <ModifiedDate>
2012-01-05

>  <Parent>


>  <OneLetterCode>


>  <SubcomponentList>
ACE THR ILE 2A0 GLN ARG NH2

>  <AmbiguousFlag>
N

>  <InChI>
InChI=1S/C35H67N11O8/c1-7-10-13-23(43-33(53)28(20(4)9-3)46-34(54)29(21(5)47)42-22(6)48)19-41-25(14-11-8-2)31(51)45-26(16-17-27(36)49)32(52)44-24(30(37)50)15-12-18-40-35(38)39/h20-21,23-26,28-29,41,47H,7-19H2,1-6H3,(H2,36,49)(H2,37,50)(H,42,48)(H,43,53)(H,44,52)(H,45,51)(H,46,54)(H4,38,39,40)/p+1/t20-,21+,23-,24-,25-,26-,28-,29-/m0/s1

>  <InChIKey>
MQPXOVRKKPPKFZ-QYKDHROSSA-O

>  <SMILES>
CCCC[C@@H](CN[C@@H](CCCC)C(=O)N[C@@H](CCC(=O)N)C(=O)N[C@@H](CCCNC(=[NH2+])N)C(=O)N)NC(=O)[C@H]([C@@H](C)CC)NC(=O)[C@H]([C@@H](C)O)NC(=O)C

$$$$
