4F39_KAI_A_301
  RCSB PDB08012021393D
Coordinates from PDB:4F39:A:301 Model:1 without hydrogens
 15 15  0  0  0  0            999 V2000
    2.7220   23.7450   13.7900   N 0  0  0  0  0  0  0  0  0  0  0  0
    2.5790   22.4810   14.5790   C 0  0  0  0  0  0  0  0  0  0  0  0
    1.3770   20.9790   16.7820   C 0  0  0  0  0  0  0  0  0  0  0  0
    2.3790   22.3430   18.5290   C 0  0  0  0  0  0  0  0  0  0  0  0
    3.0850   24.8210   14.8010   C 0  0  0  0  0  0  0  0  0  0  0  0
    2.4100   24.2500   16.0940   C 0  0  0  0  0  0  0  0  0  0  0  0
    0.8840   24.4420   16.2600   C 0  0  0  0  0  0  0  0  0  0  0  0
    2.8590   22.7980   16.0220   C 0  0  0  0  0  0  0  0  0  0  0  0
    0.3130   25.8270   16.5500   C 0  0  0  0  0  0  0  0  0  0  0  0
    2.1640   22.0400   17.0960   C 0  0  0  0  0  0  0  0  0  0  0  0
    4.5990   25.0510   14.8960   C 0  0  0  0  0  0  0  0  0  0  0  0
    5.3380   24.6940   14.0130   O 0  0  0  0  0  0  0  0  0  0  0  0
   -0.9040   26.0590   16.5820   O 0  0  0  0  0  0  0  0  0  0  0  0
    1.2240   26.6640   17.1590   O 0  0  0  0  0  0  0  0  0  0  0  0
    4.9800   25.9430   15.8690   O 0  0  0  0  0  0  0  0  0  0  0  0
  1  2  1  0  0  0  0
  1  5  1  0  0  0  0
  2  8  1  0  0  0  0
  3 10  2  0  0  0  0
  4 10  1  0  0  0  0
  5  6  1  0  0  0  0
  5 11  1  0  0  0  0
  6  7  1  0  0  0  0
  6  8  1  0  0  0  0
  7  9  1  0  0  0  0
  8 10  1  0  0  0  0
  9 13  1  0  0  0  0
  9 14  2  0  0  0  0
 11 12  2  0  0  0  0
 11 15  1  0  0  0  0
M  END
>  <InstanceId>
4F39_KAI_A_301

>  <ChemCompId>
KAI

>  <PdbId>
4F39

>  <ChainId>
A

>  <ResidueNumber>
301

>  <InsertionCode>


>  <Model>
1

>  <AltIds>


>  <MissingHeavyAtoms>
0

>  <ObservedFormula>
C10 N O4

>  <Name>
3-(CARBOXYMETHYL)-4-ISOPROPENYLPROLINE

>  <SystematicName>
(2S,3S,4S)-3-(carboxymethyl)-4-prop-1-en-2-yl-pyrrolidine-2-carboxylic acid

>  <Synonyms>
KAINATE

>  <Type>
NON-POLYMER

>  <Formula>
C10 H15 N O4

>  <MolecularWeight>
213.23

>  <ModifiedDate>
2020-06-17

>  <Parent>


>  <OneLetterCode>


>  <SubcomponentList>


>  <AmbiguousFlag>
N

>  <InChI>
InChI=1S/C10H15NO4/c1-5(2)7-4-11-9(10(14)15)6(7)3-8(12)13/h6-7,9,11H,1,3-4H2,2H3,(H,12,13)(H,14,15)/t6-,7+,9-/m0/s1

>  <InChIKey>
VLSMHEGGTFMBBZ-OOZYFLPDSA-N

>  <SMILES>
CC(=C)[C@H]1CN[C@@H]([C@H]1CC(=O)O)C(=O)O

$$$$
