5TPX_7H7_A_1505
  RCSB PDB08022003063D
Coordinates from PDB:5TPX:A:1505 Model:1 without hydrogens
 27 30  0  0  0  0            999 V2000
   30.7590   77.1350   48.4150   C 0  0  0  0  0  0  0  0  0  0  0  0
   29.3700   77.5040   48.0630   N 0  0  0  0  0  0  0  0  0  0  0  0
   28.8780   78.5410   48.9800   C 0  0  0  0  0  0  0  0  0  0  0  0
   28.4800   76.3670   47.7400   C 0  0  0  0  0  0  0  0  0  0  0  0
   28.4350   75.3360   48.8590   C 0  0  0  0  0  0  0  0  0  0  0  0
   27.8130   75.6180   50.0800   C 0  0  0  0  0  0  0  0  0  0  0  0
   27.9080   74.7330   51.1420   C 0  0  0  0  0  0  0  0  0  0  0  0
   28.6020   73.5360   50.9950   C 0  0  0  0  0  0  0  0  0  0  0  0
   29.2120   73.2410   49.7880   C 0  0  0  0  0  0  0  0  0  0  0  0
   29.1290   74.1290   48.7270   C 0  0  0  0  0  0  0  0  0  0  0  0
   27.0350   76.7480   47.3320   C 0  0  0  0  0  0  0  0  0  0  0  0
   26.1860   75.5290   47.0120   C 0  0  0  0  0  0  0  0  0  0  0  0
   27.0220   77.6460   46.1810   N 0  0  0  0  0  0  0  0  0  0  0  0
   26.3630   78.8320   46.1700   C 0  0  0  0  0  0  0  0  0  0  0  0
   26.2880   79.4850   44.8590   C 0  0  0  0  0  0  0  0  0  0  0  0
   26.6780   78.8280   43.6870   C 0  0  0  0  0  0  0  0  0  0  0  0
   26.4900   79.4340   42.4540   C 0  0  0  0  0  0  0  0  0  0  0  0
   25.9350   80.7000   42.3740   C 0  0  0  0  0  0  0  0  0  0  0  0
   25.5440   81.3650   43.5250   C 0  0  0  0  0  0  0  0  0  0  0  0
   25.6980   80.7570   44.7750   C 0  0  0  0  0  0  0  0  0  0  0  0
   25.1910   81.3490   45.9890   C 0  0  0  0  0  0  0  0  0  0  0  0
   25.3000   80.6120   47.1480   N 0  0  0  0  0  0  0  0  0  0  0  0
   25.9090   79.3520   47.2830   N 0  0  0  0  0  0  0  0  0  0  0  0
   24.5050   82.4420   46.2360   N 0  0  0  0  0  0  0  0  0  0  0  0
   24.1630   82.4340   47.5900   N 0  0  0  0  0  0  0  0  0  0  0  0
   24.6350   81.3360   48.1160   C 0  0  0  0  0  0  0  0  0  0  0  0
   24.5560   80.9460   49.5480   C 0  0  0  0  0  0  0  0  0  0  0  0
 18 17  2  0  0  0  0
 18 19  1  0  0  0  0
 17 16  1  0  0  0  0
 19 20  2  0  0  0  0
 16 15  2  0  0  0  0
 20 15  1  0  0  0  0
 20 21  1  0  0  0  0
 15 14  1  0  0  0  0
 21 24  2  0  0  0  0
 21 22  1  0  0  0  0
 14 13  1  0  0  0  0
 14 23  2  0  0  0  0
 13 11  1  0  0  0  0
 24 25  1  0  0  0  0
 12 11  1  0  0  0  0
 22 23  1  0  0  0  0
 22 26  1  0  0  0  0
 11  4  1  0  0  0  0
 25 26  2  0  0  0  0
  4  2  1  0  0  0  0
  4  5  1  0  0  0  0
  2  1  1  0  0  0  0
  2  3  1  0  0  0  0
 26 27  1  0  0  0  0
 10  5  2  0  0  0  0
 10  9  1  0  0  0  0
  5  6  1  0  0  0  0
  9  8  2  0  0  0  0
  6  7  2  0  0  0  0
  8  7  1  0  0  0  0
M  END
>  <InstanceId>
5TPX_7H7_A_1505

>  <ChemCompId>
7H7

>  <PdbId>
5TPX

>  <ChainId>
A

>  <ResidueNumber>
1505

>  <InsertionCode>


>  <Model>
1

>  <AltIds>


>  <MissingHeavyAtoms>
0

>  <ObservedFormula>
C21 N6

>  <Name>
(1S,2S)-N~1~,N~1~-dimethyl-N~2~-(3-methyl[1,2,4]triazolo[3,4-a]phthalazin-6-yl)-1-phenylpropane-1,2-diamine

>  <SystematicName>
(1~{S},2~{S})-~{N}1,~{N}1-dimethyl-~{N}2-(3-methyl-[1,2,4]triazolo[3,4-a]phthalazin-6-yl)-1-phenyl-propane-1,2-diamine

>  <Synonyms>


>  <Type>
NON-POLYMER

>  <Formula>
C21 H24 N6

>  <MolecularWeight>
360.455

>  <ModifiedDate>
2016-12-30

>  <Parent>


>  <OneLetterCode>


>  <SubcomponentList>


>  <AmbiguousFlag>
N

>  <InChI>
InChI=1S/C21H24N6/c1-14(19(26(3)4)16-10-6-5-7-11-16)22-20-17-12-8-9-13-18(17)21-24-23-15(2)27(21)25-20/h5-14,19H,1-4H3,(H,22,25)/t14-,19+/m0/s1

>  <InChIKey>
MSFPLTWUFWOKBX-IFXJQAMLSA-N

>  <SMILES>
Cc1nnc2n1nc(c3c2cccc3)N[C@@H](C)[C@H](c4ccccc4)N(C)C

$$$$
