3LDQ_3P1_A_401
  RCSB PDB08012019413D
Coordinates from PDB:3LDQ:A:401 Model:1 without hydrogens
 31 35  0  0  0  0            999 V2000
   18.0700   -5.5890   -2.7520   N 0  0  0  0  0  0  0  0  0  0  0  0
   16.8300   -5.6940   -2.2740   C 0  0  0  0  0  0  0  0  0  0  0  0
   16.4460   -5.0110   -1.2130   N 0  0  0  0  0  0  0  0  0  0  0  0
   18.9780   -4.8550   -2.1280   C 0  0  0  0  0  0  0  0  0  0  0  0
   17.1800   -3.5050    0.5480   N 0  0  0  0  0  0  0  0  0  0  0  0
   18.3790   -2.9190    0.8020   C 0  0  0  0  0  0  0  0  0  0  0  0
   19.2500   -3.3100   -0.1780   N 0  0  0  0  0  0  0  0  0  0  0  0
   18.6030   -4.1410   -0.9900   C 0  0  0  0  0  0  0  0  0  0  0  0
   17.3120   -4.2410   -0.5520   C 0  0  0  0  0  0  0  0  0  0  0  0
   15.9390   -3.3990    1.3400   C 0  0  0  0  0  0  0  0  0  0  0  0
   15.6050   -2.0170    1.5780   O 0  0  0  0  0  0  0  0  0  0  0  0
   14.8200   -1.9880    2.8400   C 0  0  0  0  0  0  0  0  0  0  0  0
   15.0110   -3.3820    3.5070   C 0  0  0  0  0  0  0  0  0  0  0  0
   16.1320   -3.9910    2.7290   C 0  0  0  0  0  0  0  0  0  0  0  0
   20.2550   -4.8090   -2.5980   N 0  0  0  0  0  0  0  0  0  0  0  0
   18.6600   -2.0640    1.8260   N 0  0  0  0  0  0  0  0  0  0  0  0
   20.0400   -1.5640    2.0260   C 0  0  0  0  0  0  0  0  0  0  0  0
   20.8410   -2.5330    2.9670   C 0  0  0  0  0  0  0  0  0  0  0  0
   22.1870   -2.6730    2.8030   N 0  0  0  0  0  0  0  0  0  0  0  0
   20.9110   -4.0590    4.8280   C 0  0  0  0  0  0  0  0  0  0  0  0
   20.1860   -3.2260    3.9900   C 0  0  0  0  0  0  0  0  0  0  0  0
   22.2840   -4.1790    4.6500   C 0  0  0  0  0  0  0  0  0  0  0  0
   22.9100   -3.4890    3.6210   C 0  0  0  0  0  0  0  0  0  0  0  0
   24.3000   -3.6340    3.4210   C 0  0  0  0  0  0  0  0  0  0  0  0
   25.0470   -4.4660    4.2600   C 0  0  0  0  0  0  0  0  0  0  0  0
   24.4140   -5.1660    5.2820   C 0  0  0  0  0  0  0  0  0  0  0  0
   23.0320   -5.0190    5.4860   C 0  0  0  0  0  0  0  0  0  0  0  0
   15.4350   -0.8720    3.7230   C 0  0  0  0  0  0  0  0  0  0  0  0
   16.8340   -1.1170    3.8910   O 0  0  0  0  0  0  0  0  0  0  0  0
   13.7910   -4.1650    3.3450   O 0  0  0  0  0  0  0  0  0  0  0  0
   16.0000   -5.4340    2.6790   O 0  0  0  0  0  0  0  0  0  0  0  0
  2  1  2  0  0  0  0
  4  1  1  0  0  0  0
  3  2  1  0  0  0  0
  9  3  2  0  0  0  0
  8  4  2  0  0  0  0
  4 15  1  0  0  0  0
 10  5  1  0  0  0  0
  5  6  1  0  0  0  0
  5  9  1  0  0  0  0
 16  6  1  0  0  0  0
  6  7  2  0  0  0  0
  7  8  1  0  0  0  0
  9  8  1  0  0  0  0
 14 10  1  0  0  0  0
 10 11  1  0  0  0  0
 12 11  1  0  0  0  0
 13 12  1  0  0  0  0
 28 12  1  0  0  0  0
 30 13  1  0  0  0  0
 13 14  1  0  0  0  0
 31 14  1  0  0  0  0
 16 17  1  0  0  0  0
 18 17  1  0  0  0  0
 21 18  2  0  0  0  0
 18 19  1  0  0  0  0
 23 19  2  0  0  0  0
 20 22  2  0  0  0  0
 20 21  1  0  0  0  0
 27 22  1  0  0  0  0
 22 23  1  0  0  0  0
 23 24  1  0  0  0  0
 25 24  2  0  0  0  0
 26 25  1  0  0  0  0
 27 26  2  0  0  0  0
 28 29  1  0  0  0  0
M  END
>  <InstanceId>
3LDQ_3P1_A_401

>  <ChemCompId>
3P1

>  <PdbId>
3LDQ

>  <ChainId>
A

>  <ResidueNumber>
401

>  <InsertionCode>


>  <Model>
1

>  <AltIds>


>  <MissingHeavyAtoms>
0

>  <ObservedFormula>
C20 N7 O4

>  <Name>
8-[(quinolin-2-ylmethyl)amino]adenosine

>  <SystematicName>
(2R,3R,4S,5R)-2-[6-azanyl-8-(quinolin-2-ylmethylamino)purin-9-yl]-5-(hydroxymethyl)oxolane-3,4-diol

>  <Synonyms>


>  <Type>
NON-POLYMER

>  <Formula>
C20 H21 N7 O4

>  <MolecularWeight>
423.425

>  <ModifiedDate>
2011-06-04

>  <Parent>


>  <OneLetterCode>


>  <SubcomponentList>


>  <AmbiguousFlag>
N

>  <InChI>
InChI=1S/C20H21N7O4/c21-17-14-18(24-9-23-17)27(19-16(30)15(29)13(8-28)31-19)20(26-14)22-7-11-6-5-10-3-1-2-4-12(10)25-11/h1-6,9,13,15-16,19,28-30H,7-8H2,(H,22,26)(H2,21,23,24)/t13-,15-,16-,19-/m1/s1

>  <InChIKey>
NAHSCHKAPXMNFP-NVQRDWNXSA-N

>  <SMILES>
c1ccc2c(c1)ccc(n2)CNc3nc4c(ncnc4n3[C@H]5[C@@H]([C@@H]([C@H](O5)CO)O)O)N

$$$$
