3LXE_TOR_A_262
  RCSB PDB08012019443D
Coordinates from PDB:3LXE:A:262 Model:1 without hydrogens
 22 24  0  0  0  0            999 V2000
  -19.9080   36.8120   44.8220   C 0  0  0  0  0  0  0  0  0  0  0  0
  -18.7750   36.7690   43.8230   C 0  0  0  0  0  0  0  0  0  0  0  0
  -19.1420   37.4720   42.5230   C 0  0  0  0  0  0  0  0  0  0  0  0
  -18.4590   35.3750   43.5640   O 0  0  0  0  0  0  0  0  0  0  0  0
  -17.5480   37.2210   44.4390   O 0  0  0  0  0  0  0  0  0  0  0  0
  -16.4530   36.5000   43.8620   C 0  0  0  0  0  0  0  0  0  0  0  0
  -15.2490   36.5550   44.8130   C 0  0  0  0  0  0  0  0  0  0  0  0
  -14.1100   36.2060   44.0390   O 0  0  0  0  0  0  0  0  0  0  0  0
  -13.1970   35.3780   44.7740   C 0  0  0  0  0  0  0  0  0  0  0  0
  -11.9740   36.1530   45.2700   C 0  0  0  0  0  0  0  0  0  0  0  0
  -12.8890   34.1700   43.9370   C 0  0  0  0  0  0  0  0  0  0  0  0
  -13.9620   34.9420   45.9070   O 0  0  0  0  0  0  0  0  0  0  0  0
  -15.2210   35.5930   46.0320   C 0  0  0  0  0  0  0  0  0  0  0  0
  -16.2800   34.5000   46.0330   C 0  0  0  0  0  0  0  0  0  0  0  0
  -16.7340   34.1490   44.7020   O 0  0  0  0  0  0  0  0  0  0  0  0
  -17.0710   35.0810   43.6810   C 0  0  0  0  0  0  0  0  0  0  0  0
  -16.5960   34.2960   42.4820   C 0  0  0  0  0  0  0  0  0  0  0  0
  -16.7790   35.0520   41.2480   O 0  0  0  0  0  0  0  0  0  0  0  0
  -16.3050   34.4690   39.8670   S 0  0  0  0  0  0  0  0  0  0  0  0
  -17.3240   33.5430   39.5350   O 0  0  0  0  0  0  0  0  0  0  0  0
  -16.1080   35.6540   39.1060   O 0  0  0  0  0  0  0  0  0  0  0  0
  -14.9310   33.7020   40.0820   N 0  0  0  0  0  0  0  0  0  0  0  0
  1  2  1  0  0  0  0
  2  3  1  0  0  0  0
  2  4  1  0  0  0  0
  2  5  1  0  0  0  0
  4 16  1  0  0  0  0
  5  6  1  0  0  0  0
  6  7  1  0  0  0  0
  6 16  1  0  0  0  0
  7  8  1  0  0  0  0
  7 13  1  0  0  0  0
  8  9  1  0  0  0  0
  9 10  1  0  0  0  0
  9 11  1  0  0  0  0
  9 12  1  0  0  0  0
 12 13  1  0  0  0  0
 13 14  1  0  0  0  0
 14 15  1  0  0  0  0
 15 16  1  0  0  0  0
 16 17  1  0  0  0  0
 17 18  1  0  0  0  0
 18 19  1  0  0  0  0
 19 20  2  0  0  0  0
 19 21  2  0  0  0  0
 19 22  1  0  0  0  0
M  END
>  <InstanceId>
3LXE_TOR_A_262

>  <ChemCompId>
TOR

>  <PdbId>
3LXE

>  <ChainId>
A

>  <ResidueNumber>
262

>  <InsertionCode>


>  <Model>
1

>  <AltIds>


>  <MissingHeavyAtoms>
0

>  <ObservedFormula>
C12 N O8 S

>  <Name>
[(3aS,5aR,8aR,8bS)-2,2,7,7-tetramethyltetrahydro-3aH-bis[1,3]dioxolo[4,5-b:4',5'-d]pyran-3a-yl]methyl sulfamate

>  <SystematicName>


>  <Synonyms>
topiramate

>  <Type>
NON-POLYMER

>  <Formula>
C12 H21 N O8 S

>  <MolecularWeight>
339.362

>  <ModifiedDate>
2011-06-04

>  <Parent>


>  <OneLetterCode>


>  <SubcomponentList>


>  <AmbiguousFlag>
N

>  <InChI>
InChI=1S/C12H21NO8S/c1-10(2)18-7-5-16-12(6-17-22(13,14)15)9(8(7)19-10)20-11(3,4)21-12/h7-9H,5-6H2,1-4H3,(H2,13,14,15)/t7-,8-,9+,12+/m1/s1

>  <InChIKey>
KJADKKWYZYXHBB-XBWDGYHZSA-N

>  <SMILES>
CC1(O[C@@H]2CO[C@@]3([C@H]([C@@H]2O1)OC(O3)(C)C)COS(=O)(=O)N)C

$$$$
