4KFQ_KFQ_A_301
  RCSB PDB08012022143D
Coordinates from PDB:4KFQ:A:301 Model:1 without hydrogens
 15 17  0  0  0  0            999 V2000
   26.2830   35.7100   49.9170   O 0  0  0  0  0  0  0  0  0  0  0  0
   26.5270   35.3740   48.7300   C 0  0  0  0  0  0  0  0  0  0  0  0
   26.6270   33.9680   48.3660   C 0  0  0  0  0  0  0  0  0  0  0  0
   26.4860   32.9380   49.1940   N 0  0  0  0  0  0  0  0  0  0  0  0
   26.6680   31.8120   48.4640   N 0  0  0  0  0  0  0  0  0  0  0  0
   26.9030   32.1760   47.2150   C 0  0  0  0  0  0  0  0  0  0  0  0
   27.1610   31.0040   45.9380   S 0  0  0  0  0  0  0  0  0  0  0  0
   26.8840   33.5470   47.0930   N 0  0  0  0  0  0  0  0  0  0  0  0
   27.0890   34.4600   46.0210   C 0  0  0  0  0  0  0  0  0  0  0  0
   27.3530   34.0760   44.6950   C 0  0  0  0  0  0  0  0  0  0  0  0
   27.5250   35.0490   43.7260   C 0  0  0  0  0  0  0  0  0  0  0  0
   27.4250   36.4090   44.0770   C 0  0  0  0  0  0  0  0  0  0  0  0
   27.1520   36.7990   45.3800   C 0  0  0  0  0  0  0  0  0  0  0  0
   26.9780   35.8230   46.3660   C 0  0  0  0  0  0  0  0  0  0  0  0
   26.7070   36.2160   47.6880   N 0  0  0  0  0  0  0  0  0  0  0  0
 11 12  2  0  0  0  0
 11 10  1  0  0  0  0
 12 13  1  0  0  0  0
 10  9  2  0  0  0  0
 13 14  2  0  0  0  0
  7  6  1  0  0  0  0
  9 14  1  0  0  0  0
  9  8  1  0  0  0  0
 14 15  1  0  0  0  0
  8  6  1  0  0  0  0
  8  3  1  0  0  0  0
  6  5  2  0  0  0  0
 15  2  1  0  0  0  0
  3  2  1  0  0  0  0
  3  4  2  0  0  0  0
  5  4  1  0  0  0  0
  2  1  2  0  0  0  0
M  END
>  <InstanceId>
4KFQ_KFQ_A_301

>  <ChemCompId>
KFQ

>  <PdbId>
4KFQ

>  <ChainId>
A

>  <ResidueNumber>
301

>  <InsertionCode>


>  <Model>
1

>  <AltIds>


>  <MissingHeavyAtoms>
0

>  <ObservedFormula>
C9 N4 O S

>  <Name>
1-sulfanyl[1,2,4]triazolo[4,3-a]quinoxalin-4(5H)-one

>  <SystematicName>
1-sulfanyl-5H-[1,2,4]triazolo[4,3-a]quinoxalin-4-one

>  <Synonyms>


>  <Type>
NON-POLYMER

>  <Formula>
C9 H6 N4 O S

>  <MolecularWeight>
218.235

>  <ModifiedDate>
2013-10-04

>  <Parent>


>  <OneLetterCode>


>  <SubcomponentList>


>  <AmbiguousFlag>
N

>  <InChI>
InChI=1S/C9H6N4OS/c14-8-7-11-12-9(15)13(7)6-4-2-1-3-5(6)10-8/h1-4H,(H,10,14)(H,12,15)

>  <InChIKey>
WDUVQRMZWGBWJS-UHFFFAOYSA-N

>  <SMILES>
c1ccc-2c(c1)NC(=O)c3n2c(nn3)S

$$$$
