1V2R_ANH_T_800
  RCSB PDB08012016083D
Coordinates from PDB:1V2R:T:800 Model:1 without hydrogens
 30 31  0  0  0  0            999 V2000
   -2.2590   17.7940   16.8290   N 0  0  0  0  0  0  0  0  0  0  0  0
   -3.5220   17.1800   17.3670   C 0  0  0  0  0  0  0  0  0  0  0  0
   -3.1670   16.2540   18.5350   C 0  0  0  0  0  0  0  0  0  0  0  0
   -4.6950   18.1800   17.8190   C 0  0  0  0  0  0  0  0  0  0  0  0
   -5.8440   17.9850   17.3540   O 0  0  0  0  0  0  0  0  0  0  0  0
   -4.4060   19.2580   18.7270   O 0  0  0  0  0  0  0  0  0  0  0  0
   -3.0960   19.5770   19.3330   C 0  0  0  0  0  0  0  0  0  0  0  0
   -2.3960   14.9840   18.1870   C 0  0  0  0  0  0  0  0  0  0  0  0
   -1.3750   14.5490   19.0660   C 0  0  0  0  0  0  0  0  0  0  0  0
   -0.6240   13.3730   18.7900   C 0  0  0  0  0  0  0  0  0  0  0  0
   -0.9000   12.6210   17.6180   C 0  0  0  0  0  0  0  0  0  0  0  0
   -1.9400   13.0130   16.6660   C 0  0  0  0  0  0  0  0  0  0  0  0
   -2.6840   14.2220   16.9880   C 0  0  0  0  0  0  0  0  0  0  0  0
   -2.1940   12.2450   15.5100   C 0  0  0  0  0  0  0  0  0  0  0  0
   -2.8020   12.6830   14.4240   N 0  0  0  0  0  0  0  0  0  0  0  0
   -1.8550   10.9670   15.3660   N 0  0  0  0  0  0  0  0  0  0  0  0
   -2.2090   18.6440   15.7890   C 0  0  0  0  0  0  0  0  0  0  0  0
   -0.8900   19.3420   15.4820   C 0  0  0  0  0  0  0  0  0  0  0  0
   -0.8170   19.7340   14.0540   N 0  0  0  0  0  0  0  0  0  0  0  0
   -3.1750   18.8670   15.0580   O 0  0  0  0  0  0  0  0  0  0  0  0
    3.5270   24.1330   16.8910   C 0  0  0  0  0  0  0  0  0  0  0  0
    2.5500   23.4060   16.0500   C 0  0  0  0  0  0  0  0  0  0  0  0
    2.9560   22.4740   15.0330   C 0  0  0  0  0  0  0  0  0  0  0  0
    1.9540   21.8030   14.2500   C 0  0  0  0  0  0  0  0  0  0  0  0
    0.5710   22.1060   14.5200   C 0  0  0  0  0  0  0  0  0  0  0  0
    0.1870   23.0270   15.5260   C 0  0  0  0  0  0  0  0  0  0  0  0
    1.1760   23.6660   16.2780   C 0  0  0  0  0  0  0  0  0  0  0  0
   -0.7070   21.3550   13.6280   S 0  0  0  0  0  0  0  0  0  0  0  0
   -0.4570   21.3940   12.0590   O 0  0  0  0  0  0  0  0  0  0  0  0
   -2.0790   21.9120   14.1430   O 0  0  0  0  0  0  0  0  0  0  0  0
  1  2  1  0  0  0  0
  1 17  1  0  0  0  0
  2  3  1  0  0  0  0
  2  4  1  0  0  0  0
  3  8  1  0  0  0  0
  4  5  2  0  0  0  0
  4  6  1  0  0  0  0
  6  7  1  0  0  0  0
  8  9  2  0  0  0  0
  8 13  1  0  0  0  0
  9 10  1  0  0  0  0
 10 11  2  0  0  0  0
 11 12  1  0  0  0  0
 12 13  2  0  0  0  0
 12 14  1  0  0  0  0
 14 15  1  0  0  0  0
 14 16  2  0  0  0  0
 17 18  1  0  0  0  0
 17 20  2  0  0  0  0
 18 19  1  0  0  0  0
 19 28  1  0  0  0  0
 21 22  1  0  0  0  0
 22 23  1  0  0  0  0
 22 27  2  0  0  0  0
 23 24  2  0  0  0  0
 24 25  1  0  0  0  0
 25 26  2  0  0  0  0
 25 28  1  0  0  0  0
 26 27  1  0  0  0  0
 28 29  2  0  0  0  0
 28 30  2  0  0  0  0
M  END
>  <InstanceId>
1V2R_ANH_T_800

>  <ChemCompId>
ANH

>  <PdbId>
1V2R

>  <ChainId>
T

>  <ResidueNumber>
800

>  <InsertionCode>


>  <Model>
1

>  <AltIds>


>  <MissingHeavyAtoms>
0

>  <ObservedFormula>
C20 N4 O5 S

>  <Name>
METHYL N-[(4-METHYLPHENYL)SULFONYL]GLYCYL-3-[AMINO(IMINO)METHYL]-D-PHENYLALANINATE

>  <SystematicName>
methyl (2S)-3-(3-carbamimidoylphenyl)-2-[2-[(4-methylphenyl)sulfonylamino]ethanoylamino]propanoate

>  <Synonyms>
NALPHA-(2-NAPHTHYLSULFONYLGLYCYL)-3-AMIDINO-D,L-PHENYLALANINE-ISOPROPYLESTER

>  <Type>
NON-POLYMER

>  <Formula>
C20 H24 N4 O5 S

>  <MolecularWeight>
432.493

>  <ModifiedDate>
2011-06-04

>  <Parent>


>  <OneLetterCode>


>  <SubcomponentList>


>  <AmbiguousFlag>
N

>  <InChI>
InChI=1S/C20H24N4O5S/c1-13-6-8-16(9-7-13)30(27,28)23-12-18(25)24-17(20(26)29-2)11-14-4-3-5-15(10-14)19(21)22/h3-10,17,23H,11-12H2,1-2H3,(H3,21,22)(H,24,25)/t17-/m0/s1

>  <InChIKey>
YAEIKQDHLCFGAA-KRWDZBQOSA-N

>  <SMILES>
Cc1ccc(cc1)S(=O)(=O)NCC(=O)N[C@@H](Cc2cccc(c2)C(=N)N)C(=O)OC

$$$$
