1MTR_PI6_B_101
  RCSB PDB08012015293D
Coordinates from PDB:1MTR:B:101 Model:1 without hydrogens
 43 45  0  0  0  0            999 V2000
    3.8120   -0.1510   12.1280   O 0  0  0  0  0  0  0  0  0  0  0  0
    3.8390    1.0700   12.4190   C 0  0  0  0  0  0  0  0  0  0  0  0
    2.8460    1.9070   12.1390   O 0  0  0  0  0  0  0  0  0  0  0  0
    1.6090    1.3620   11.6690   C 0  0  0  0  0  0  0  0  0  0  0  0
    1.8150    0.7460   10.2690   C 0  0  0  0  0  0  0  0  0  0  0  0
    1.0660    0.3590   12.6570   C 0  0  0  0  0  0  0  0  0  0  0  0
    0.6500    2.5150   11.5790   C 0  0  0  0  0  0  0  0  0  0  0  0
    4.8920    1.6410   12.9920   N 0  0  0  0  0  0  0  0  0  0  0  0
    6.0860    0.8980   13.3940   C 0  0  0  0  0  0  0  0  0  0  0  0
    6.0250    0.5400   14.8670   C 0  0  0  0  0  0  0  0  0  0  0  0
    7.2140   -0.1580   15.2100   O 0  0  0  0  0  0  0  0  0  0  0  0
    7.3250    1.7310   13.1470   C 0  0  0  0  0  0  0  0  0  0  0  0
    7.5170    2.0830   11.7380   C 0  0  0  0  0  0  0  0  0  0  0  0
    7.2770    3.3810   11.3000   C 0  0  0  0  0  0  0  0  0  0  0  0
    7.8520    1.1030   10.8180   C 0  0  0  0  0  0  0  0  0  0  0  0
    7.3590    3.6950    9.9590   C 0  0  0  0  0  0  0  0  0  0  0  0
    7.9340    1.4070    9.4770   C 0  0  0  0  0  0  0  0  0  0  0  0
    7.6860    2.7010    9.0420   C 0  0  0  0  0  0  0  0  0  0  0  0
    4.8260   -0.3500   15.1620   C 0  0  0  0  0  0  0  0  0  0  0  0
    4.9800   -0.7490   16.5650   N 0  0  0  0  0  0  0  0  0  0  0  0
    4.7330   -2.1850   16.8660   C 0  0  0  0  0  0  0  0  0  0  0  0
    5.7270   -3.1840   16.2610   C 0  0  0  0  0  0  0  0  0  0  0  0
    5.9380   -3.2130   15.0430   O 0  0  0  0  0  0  0  0  0  0  0  0
    3.3070   -2.6010   16.4850   C 0  0  0  0  0  0  0  0  0  0  0  0
    3.0880   -4.0880   16.5880   C 0  0  0  0  0  0  0  0  0  0  0  0
    3.0690   -4.8820   15.4370   C 0  0  0  0  0  0  0  0  0  0  0  0
    3.0430   -4.7290   17.8400   C 0  0  0  0  0  0  0  0  0  0  0  0
    3.0270   -6.2650   15.5160   C 0  0  0  0  0  0  0  0  0  0  0  0
    3.0070   -6.1030   17.9280   C 0  0  0  0  0  0  0  0  0  0  0  0
    3.0060   -6.8700   16.7570   C 0  0  0  0  0  0  0  0  0  0  0  0
    6.3020   -4.0050   17.1410   N 0  0  0  0  0  0  0  0  0  0  0  0
    7.2390   -5.1000   16.8040   C 0  0  0  0  0  0  0  0  0  0  0  0
    6.8690   -6.1580   17.8470   C 0  0  0  0  0  0  0  0  0  0  0  0
    6.8500   -5.8730   19.0590   O 0  0  0  0  0  0  0  0  0  0  0  0
    8.7390   -4.7770   17.0390   C 0  0  0  0  0  0  0  0  0  0  0  0
    9.2220   -3.6210   16.1610   C 0  0  0  0  0  0  0  0  0  0  0  0
    9.5760   -6.0270   16.7730   C 0  0  0  0  0  0  0  0  0  0  0  0
    9.7030   -4.0590   14.8430   C 0  0  0  0  0  0  0  0  0  0  0  0
    3.0180   -8.2490   16.7780   O 0  0  0  0  0  0  0  0  0  0  0  0
    6.5430   -7.3550   17.3700   N 0  0  0  0  0  0  0  0  0  0  0  0
    6.1610   -8.4480   18.2470   C 0  0  0  0  0  0  0  0  0  0  0  0
    5.0770   -9.2840   17.5770   C 0  0  0  0  0  0  0  0  0  0  0  0
    3.6870   -8.7600   17.9160   C 0  0  0  0  0  0  0  0  0  0  0  0
  1  2  2  0  0  0  0
  2  3  1  0  0  0  0
  3  4  1  0  0  0  0
  4  5  1  0  0  0  0
  4  6  1  0  0  0  0
  4  7  1  0  0  0  0
  8  9  1  0  0  0  0
  9 10  1  0  0  0  0
  9 12  1  0  0  0  0
 10 11  1  0  0  0  0
 10 19  1  0  0  0  0
 12 13  1  0  0  0  0
 13 14  2  0  0  0  0
 13 15  1  0  0  0  0
 14 16  1  0  0  0  0
 15 17  2  0  0  0  0
 16 18  2  0  0  0  0
 17 18  1  0  0  0  0
 20 21  1  0  0  0  0
 21 22  1  0  0  0  0
 21 24  1  0  0  0  0
 22 23  2  0  0  0  0
 24 25  1  0  0  0  0
 25 26  2  0  0  0  0
 25 27  1  0  0  0  0
 26 28  1  0  0  0  0
 27 29  2  0  0  0  0
 28 30  2  0  0  0  0
 29 30  1  0  0  0  0
 30 39  1  0  0  0  0
 31 32  1  0  0  0  0
 32 33  1  0  0  0  0
 32 35  1  0  0  0  0
 33 34  2  0  0  0  0
 35 36  1  0  0  0  0
 35 37  1  0  0  0  0
 36 38  1  0  0  0  0
 40 41  1  0  0  0  0
 41 42  1  0  0  0  0
  2  8  1  0  0  0  0
 19 20  1  0  0  0  0
 22 31  1  0  0  0  0
 33 40  1  0  0  0  0
 42 43  1  0  0  0  0
 39 43  1  0  0  0  0
M  END
>  <InstanceId>
1MTR_PI6_B_101

>  <ChemCompId>
PI6

>  <PdbId>
1MTR

>  <ChainId>
B

>  <ResidueNumber>
101

>  <InsertionCode>


>  <Model>
1

>  <AltIds>


>  <MissingHeavyAtoms>
0

>  <ObservedFormula>
C33 N4 O6

>  <Name>
[1-BENZYL-3-(8-SEC-BUTYL-7,10-DIOXO-2-OXA-6,9-DIAZA-BICYCLO[11.2.2] HEPTADECA-1(16),13(17),14-TRIEN-11-YLAMINO)-2-HYDROXY-PROPYL]-CARBAMIC ACID TERT-BUTYL ESTER

>  <SystematicName>
tert-butyl N-[(2S,3R)-4-[[(3S,6S)-6-[(2S)-butan-2-yl]-4,7-bis(oxidanylidene)-12-oxa-5,8-diazabicyclo[11.2.2]heptadeca-1(16),13(17),14-trien-3-yl]amino]-3-oxidanyl-1-phenyl-butan-2-yl]carbamate

>  <Synonyms>
MACROCYCLIC PEPTIDOMIMETIC INHIBITOR 6

>  <Type>
peptide-like

>  <Formula>
C33 H48 N4 O6

>  <MolecularWeight>
596.757

>  <ModifiedDate>
2012-07-19

>  <Parent>


>  <OneLetterCode>


>  <SubcomponentList>
BOC T00 ILE 0D8

>  <AmbiguousFlag>
N

>  <InChI>
InChI=1S/C33H48N4O6/c1-6-22(2)29-31(40)34-17-10-18-42-25-15-13-24(14-16-25)20-27(30(39)37-29)35-21-28(38)26(19-23-11-8-7-9-12-23)36-32(41)43-33(3,4)5/h7-9,11-16,22,26-29,35,38H,6,10,17-21H2,1-5H3,(H,34,40)(H,36,41)(H,37,39)/t22-,26-,27-,28+,29-/m0/s1

>  <InChIKey>
RFUKEYSMPSCDLJ-CLFZCTPNSA-N

>  <SMILES>
CC[C@H](C)[C@H]1C(=O)NCCCOc2ccc(cc2)C[C@@H](C(=O)N1)NC[C@H]([C@H](Cc3ccccc3)NC(=O)OC(C)(C)C)O

$$$$
