5VGY_9AA_A_304
  RCSB PDB08022003213D
Coordinates from PDB:5VGY:A:304 Model:1 without hydrogens
 19 20  0  0  0  0            999 V2000
    1.1890    4.9920   83.5930   C 0  0  0  0  0  0  0  0  0  0  0  0
    1.4910    6.3520   83.7040   C 0  0  0  0  0  0  0  0  0  0  0  0
   -0.6570    6.7960   84.6080   C 0  0  0  0  0  0  0  0  0  0  0  0
   -0.0580    4.5640   83.9860   C 0  0  0  0  0  0  0  0  0  0  0  0
    0.5810    7.2270   84.2000   C 0  0  0  0  0  0  0  0  0  0  0  0
   -0.9970    5.4850   84.4650   C 0  0  0  0  0  0  0  0  0  0  0  0
   -0.8790    0.8990   84.7990   C 0  0  0  0  0  0  0  0  0  0  0  0
   -2.2970    1.7000   86.2680   C 0  0  0  0  0  0  0  0  0  0  0  0
   -0.4460    2.2650   85.0710   C 0  0  0  0  0  0  0  0  0  0  0  0
    2.0890    9.1220   84.2770   C 0  0  0  0  0  0  0  0  0  0  0  0
   -3.1730    5.8520   85.3040   C 0  0  0  0  0  0  0  0  0  0  0  0
   -0.4220    3.0900   83.8460   C 0  0  0  0  0  0  0  0  0  0  0  0
   -2.0030    0.5550   85.5400   N 0  0  0  0  0  0  0  0  0  0  0  0
   -1.2110    2.5800   86.1550   N 0  0  0  0  0  0  0  0  0  0  0  0
   -0.4040    0.0910   83.9900   O 0  0  0  0  0  0  0  0  0  0  0  0
    0.8980    2.2440   85.6590   O 0  0  0  0  0  0  0  0  0  0  0  0
    0.7590    8.5980   84.4300   O 0  0  0  0  0  0  0  0  0  0  0  0
   -2.1960    4.9350   84.8250   O 0  0  0  0  0  0  0  0  0  0  0  0
   -3.7240    2.0140   87.0590   S 0  0  0  0  0  0  0  0  0  0  0  0
  1  2  2  0  0  0  0
  1  4  1  0  0  0  0
  2  5  1  0  0  0  0
 12  4  1  0  0  0  0
 12  9  1  0  0  0  0
  4  6  2  0  0  0  0
 15  7  2  0  0  0  0
  5 17  1  0  0  0  0
  5  3  2  0  0  0  0
 10 17  1  0  0  0  0
  6  3  1  0  0  0  0
  6 18  1  0  0  0  0
  7  9  1  0  0  0  0
  7 13  1  0  0  0  0
 18 11  1  0  0  0  0
  9 16  1  0  0  0  0
  9 14  1  0  0  0  0
 13  8  1  0  0  0  0
 14  8  1  0  0  0  0
  8 19  2  0  0  0  0
M  END
>  <InstanceId>
5VGY_9AA_A_304

>  <ChemCompId>
9AA

>  <PdbId>
5VGY

>  <ChainId>
A

>  <ResidueNumber>
304

>  <InsertionCode>


>  <Model>
1

>  <AltIds>


>  <MissingHeavyAtoms>
0

>  <ObservedFormula>
C12 N2 O4 S

>  <Name>
(5S)-5-[(2,4-dimethoxyphenyl)methyl]-5-hydroxy-2-sulfanylideneimidazolidin-4-one

>  <SystematicName>
(5~{S})-5-[(2,4-dimethoxyphenyl)methyl]-5-oxidanyl-2-sulfanylidene-imidazolidin-4-one

>  <Synonyms>


>  <Type>
NON-POLYMER

>  <Formula>
C12 H14 N2 O4 S

>  <MolecularWeight>
282.316

>  <ModifiedDate>
2017-08-25

>  <Parent>


>  <OneLetterCode>


>  <SubcomponentList>


>  <AmbiguousFlag>
N

>  <InChI>
InChI=1S/C12H14N2O4S/c1-17-8-4-3-7(9(5-8)18-2)6-12(16)10(15)13-11(19)14-12/h3-5,16H,6H2,1-2H3,(H2,13,14,15,19)/t12-/m0/s1

>  <InChIKey>
HCADMEQVRWTPEA-LBPRGKRZSA-N

>  <SMILES>
COc1ccc(c(c1)OC)C[C@@]2(C(=O)NC(=S)N2)O

$$$$
