6H34_FKK_A_302
  RCSB PDB08022004553D
Coordinates from PDB:6H34:A:302 Model:1 without hydrogens
 26 28  0  0  0  0            999 V2000
   -5.4890    2.3530   15.7160   C 0  0  0  0  0  0  0  0  0  0  0  0
   -3.4340    5.8910   12.6870   N 0  0  0  0  0  0  0  0  0  0  0  0
   -6.3680    3.4170   15.6130   C 0  0  0  0  0  0  0  0  0  0  0  0
   -5.2440    1.1900   18.0000   O 0  0  0  0  0  0  0  0  0  0  0  0
   -0.7750    6.7190   12.0260   N 0  0  0  0  0  0  0  0  0  0  0  0
   -6.0750    4.4600   14.7600   C 0  0  0  0  0  0  0  0  0  0  0  0
   -5.6550    6.0450   12.4450   O 0  0  0  0  0  0  0  0  0  0  0  0
   -5.9220    1.0000   16.7510   S 0  0  0  0  0  0  0  0  0  0  0  0
   -7.3530    0.9300   16.7570   O 0  0  0  0  0  0  0  0  0  0  0  0
   -4.3140    2.3320   14.9790   C 0  0  0  0  0  0  0  0  0  0  0  0
   -4.0300    3.3860   14.1250   C 0  0  0  0  0  0  0  0  0  0  0  0
   -4.9120    4.4570   14.0030   C 0  0  0  0  0  0  0  0  0  0  0  0
   -4.6900    5.5310   12.9880   C 0  0  0  0  0  0  0  0  0  0  0  0
   -2.3470    5.7600   13.6560   C 0  0  0  0  0  0  0  0  0  0  0  0
   -1.0390    5.5830   12.9170   C 0  0  0  0  0  0  0  0  0  0  0  0
   -3.1970    7.0710   11.8560   C 0  0  0  0  0  0  0  0  0  0  0  0
   -1.9010    6.8980   11.1030   C 0  0  0  0  0  0  0  0  0  0  0  0
    0.4720    6.5140   11.2740   C 0  0  0  0  0  0  0  0  0  0  0  0
    1.7130    6.6520   12.1220   C 0  0  0  0  0  0  0  0  0  0  0  0
    2.5170    5.5530   12.3840   C 0  0  0  0  0  0  0  0  0  0  0  0
    3.6960    5.6830   13.0970   C 0  0  0  0  0  0  0  0  0  0  0  0
    4.0480    6.9280   13.5410   C 0  0  0  0  0  0  0  0  0  0  0  0
    5.2160    7.0690   14.2240   F 0  0  0  0  0  0  0  0  0  0  0  0
    3.2840    8.0400   13.3150   C 0  0  0  0  0  0  0  0  0  0  0  0
    2.1100    7.8920   12.5990   C 0  0  0  0  0  0  0  0  0  0  0  0
   -5.3730   -0.3570   16.1020   N 0  0  0  0  0  0  0  0  0  0  0  0
 17 16  1  0  0  0  0
 17  5  1  0  0  0  0
 18  5  1  0  0  0  0
 18 19  1  0  0  0  0
 16  2  1  0  0  0  0
  5 15  1  0  0  0  0
 19 20  2  0  0  0  0
 19 25  1  0  0  0  0
 20 21  1  0  0  0  0
  7 13  2  0  0  0  0
 25 24  2  0  0  0  0
  2 13  1  0  0  0  0
  2 14  1  0  0  0  0
 15 14  1  0  0  0  0
 13 12  1  0  0  0  0
 21 22  2  0  0  0  0
 24 22  1  0  0  0  0
 22 23  1  0  0  0  0
 12 11  2  0  0  0  0
 12  6  1  0  0  0  0
 11 10  1  0  0  0  0
  6  3  2  0  0  0  0
 10  1  2  0  0  0  0
  3  1  1  0  0  0  0
  1  8  1  0  0  0  0
 26  8  1  0  0  0  0
  8  9  2  0  0  0  0
  8  4  2  0  0  0  0
M  END
>  <InstanceId>
6H34_FKK_A_302

>  <ChemCompId>
FKK

>  <PdbId>
6H34

>  <ChainId>
A

>  <ResidueNumber>
302

>  <InsertionCode>


>  <Model>
1

>  <AltIds>


>  <MissingHeavyAtoms>
0

>  <ObservedFormula>
C18 N3 O3 S F

>  <Name>
4-[4-[(4-fluorophenyl)methyl]piperazin-1-yl]carbonylbenzenesulfonamide

>  <SystematicName>
4-[4-[(4-fluorophenyl)methyl]piperazin-1-yl]carbonylbenzenesulfonamide

>  <Synonyms>


>  <Type>
NON-POLYMER

>  <Formula>
C18 H20 F N3 O3 S

>  <MolecularWeight>
377.433

>  <ModifiedDate>
2018-12-14

>  <Parent>


>  <OneLetterCode>


>  <SubcomponentList>


>  <AmbiguousFlag>
N

>  <InChI>
InChI=1S/C18H20FN3O3S/c19-16-5-1-14(2-6-16)13-21-9-11-22(12-10-21)18(23)15-3-7-17(8-4-15)26(20,24)25/h1-8H,9-13H2,(H2,20,24,25)

>  <InChIKey>
XFZDOSQYWUGODS-UHFFFAOYSA-N

>  <SMILES>
c1cc(ccc1CN2CCN(CC2)C(=O)c3ccc(cc3)S(=O)(=O)N)F

$$$$
