4GZP_G39_A_512
  RCSB PDB08012021523D
Coordinates from PDB:4GZP:A:512 Model:1 without hydrogens
 20 20  0  0  0  0            999 V2000
   24.2680   -5.8850   12.7270   C 0  0  0  0  0  0  0  0  0  0  0  0
   23.0010   -5.6930   12.7970   O 0  0  0  0  0  0  0  0  0  0  0  0
   25.1050   -5.0540   12.3450   O 0  0  0  0  0  0  0  0  0  0  0  0
   24.8930   -7.1060   13.1720   C 0  0  0  0  0  0  0  0  0  0  0  0
   26.4160   -7.2310   13.0840   C 0  0  0  0  0  0  0  0  0  0  0  0
   26.8920   -8.0330   14.3250   C 0  0  0  0  0  0  0  0  0  0  0  0
   26.1200   -9.3260   14.3940   C 0  0  0  0  0  0  0  0  0  0  0  0
   26.7090  -10.2540   15.3540   N 0  0  0  0  0  0  0  0  0  0  0  0
   26.9190  -11.5210   14.9690   C 0  0  0  0  0  0  0  0  0  0  0  0
   26.5570  -11.9550   13.8750   O 0  0  0  0  0  0  0  0  0  0  0  0
   27.5900  -12.4100   15.9290   C 0  0  0  0  0  0  0  0  0  0  0  0
   24.6830   -9.0240   14.7390   C 0  0  0  0  0  0  0  0  0  0  0  0
   24.1240   -8.0540   13.7260   C 0  0  0  0  0  0  0  0  0  0  0  0
   23.9780  -10.2690   14.5770   O 0  0  0  0  0  0  0  0  0  0  0  0
   22.9180  -10.5040   15.5450   C 0  0  0  0  0  0  0  0  0  0  0  0
   21.8350   -9.4500   15.3290   C 0  0  0  0  0  0  0  0  0  0  0  0
   22.2580  -11.8710   15.3000   C 0  0  0  0  0  0  0  0  0  0  0  0
   23.3020  -12.9710   15.1950   C 0  0  0  0  0  0  0  0  0  0  0  0
   21.1140   -9.0960   16.6150   C 0  0  0  0  0  0  0  0  0  0  0  0
   28.2520   -8.4820   14.1850   N 0  0  0  0  0  0  0  0  0  0  0  0
  1  2  2  0  0  0  0
  1  3  1  0  0  0  0
  1  4  1  0  0  0  0
  4  5  1  0  0  0  0
  4 13  2  0  0  0  0
  5  6  1  0  0  0  0
  6  7  1  0  0  0  0
  6 20  1  0  0  0  0
  7  8  1  0  0  0  0
  7 12  1  0  0  0  0
  8  9  1  0  0  0  0
  9 10  2  0  0  0  0
  9 11  1  0  0  0  0
 12 13  1  0  0  0  0
 12 14  1  0  0  0  0
 14 15  1  0  0  0  0
 15 16  1  0  0  0  0
 15 17  1  0  0  0  0
 16 19  1  0  0  0  0
 17 18  1  0  0  0  0
M  END
>  <InstanceId>
4GZP_G39_A_512

>  <ChemCompId>
G39

>  <PdbId>
4GZP

>  <ChainId>
A

>  <ResidueNumber>
512

>  <InsertionCode>


>  <Model>
1

>  <AltIds>


>  <MissingHeavyAtoms>
0

>  <ObservedFormula>
C14 N2 O4

>  <Name>
(3R,4R,5S)-4-(acetylamino)-5-amino-3-(pentan-3-yloxy)cyclohex-1-ene-1-carboxylic acid

>  <SystematicName>
(3R,4R,5S)-4-acetamido-5-azanyl-3-pentan-3-yloxy-cyclohexene-1-carboxylic acid

>  <Synonyms>
Oseltamivir carboxylate

>  <Type>
NON-POLYMER

>  <Formula>
C14 H24 N2 O4

>  <MolecularWeight>
284.351

>  <ModifiedDate>
2020-06-17

>  <Parent>


>  <OneLetterCode>


>  <SubcomponentList>


>  <AmbiguousFlag>
N

>  <InChI>
InChI=1S/C14H24N2O4/c1-4-10(5-2)20-12-7-9(14(18)19)6-11(15)13(12)16-8(3)17/h7,10-13H,4-6,15H2,1-3H3,(H,16,17)(H,18,19)/t11-,12+,13+/m0/s1

>  <InChIKey>
NENPYTRHICXVCS-YNEHKIRRSA-N

>  <SMILES>
CCC(CC)O[C@@H]1C=C(C[C@@H]([C@H]1NC(=O)C)N)C(=O)O

$$$$
