4JX9_URI_A_201
  RCSB PDB08012022103D
Coordinates from PDB:4JX9:A:201 Model:1 without hydrogens
 17 18  0  0  0  0            999 V2000
    2.4070   15.9010   31.0260   N 0  0  0  0  0  0  0  0  0  0  0  0
    2.8060   17.1980   31.3390   C 0  0  0  0  0  0  0  0  0  0  0  0
    3.6210   17.4470   32.3280   N 0  0  0  0  0  0  0  0  0  0  0  0
    4.1530   16.4440   33.0410   C 0  0  0  0  0  0  0  0  0  0  0  0
    3.7850   15.1350   32.7600   C 0  0  0  0  0  0  0  0  0  0  0  0
    2.9310   14.8900   31.6830   C 0  0  0  0  0  0  0  0  0  0  0  0
    2.3230   18.1570   30.6760   O 0  0  0  0  0  0  0  0  0  0  0  0
    4.9530   16.6410   34.0200   O 0  0  0  0  0  0  0  0  0  0  0  0
    1.4450   15.7230   29.9060   C 0  0  0  0  0  0  0  0  0  0  0  0
    2.2330   15.3050   28.7630   C 0  0  0  0  0  0  0  0  0  0  0  0
    1.8840   13.9540   28.9190   C 0  0  0  0  0  0  0  0  0  0  0  0
    0.4250   13.9670   28.7880   C 0  0  0  0  0  0  0  0  0  0  0  0
    1.6640   16.1170   27.7590   O 0  0  0  0  0  0  0  0  0  0  0  0
    2.5680   13.0440   28.3530   O 0  0  0  0  0  0  0  0  0  0  0  0
    0.3900   14.7280   29.9630   O 0  0  0  0  0  0  0  0  0  0  0  0
   -0.0810   12.5370   28.5300   C 0  0  0  0  0  0  0  0  0  0  0  0
    0.0760   12.4530   27.1010   O 0  0  0  0  0  0  0  0  0  0  0  0
  1  2  1  0  0  0  0
  1  6  1  0  0  0  0
  1  9  1  0  0  0  0
  2  3  1  0  0  0  0
  2  7  2  0  0  0  0
  3  4  1  0  0  0  0
  4  5  1  0  0  0  0
  4  8  2  0  0  0  0
  5  6  2  0  0  0  0
  9 10  1  0  0  0  0
  9 15  1  0  0  0  0
 10 11  1  0  0  0  0
 10 13  1  0  0  0  0
 11 12  1  0  0  0  0
 11 14  1  0  0  0  0
 12 15  1  0  0  0  0
 12 16  1  0  0  0  0
 16 17  1  0  0  0  0
M  END
>  <InstanceId>
4JX9_URI_A_201

>  <ChemCompId>
URI

>  <PdbId>
4JX9

>  <ChainId>
A

>  <ResidueNumber>
201

>  <InsertionCode>


>  <Model>
1

>  <AltIds>


>  <MissingHeavyAtoms>
0

>  <ObservedFormula>
C9 N2 O6

>  <Name>
URIDINE

>  <SystematicName>
1-[(2R,3R,4S,5R)-3,4-dihydroxy-5-(hydroxymethyl)oxolan-2-yl]pyrimidine-2,4-dione

>  <Synonyms>


>  <Type>
NON-POLYMER

>  <Formula>
C9 H12 N2 O6

>  <MolecularWeight>
244.201

>  <ModifiedDate>
2011-06-04

>  <Parent>


>  <OneLetterCode>


>  <SubcomponentList>


>  <AmbiguousFlag>
N

>  <InChI>
InChI=1S/C9H12N2O6/c12-3-4-6(14)7(15)8(17-4)11-2-1-5(13)10-9(11)16/h1-2,4,6-8,12,14-15H,3H2,(H,10,13,16)/t4-,6-,7-,8-/m1/s1

>  <InChIKey>
DRTQHJPVMGBUCF-XVFCMESISA-N

>  <SMILES>
C1=CN(C(=O)NC1=O)[C@H]2[C@@H]([C@@H]([C@H](O2)CO)O)O

$$$$
