2I4V_DJR_B_300
  RCSB PDB08012017113D
Coordinates from PDB:2I4V:B:300 Model:1 without hydrogens
 39 42  0  0  0  0            999 V2000
   11.6980   18.2150   18.3740   C 0  0  0  0  0  0  0  0  0  0  0  0
   10.8280   18.7930   20.4120   O 0  0  0  0  0  0  0  0  0  0  0  0
   10.4160   18.2310   19.1570   C 0  0  0  0  0  0  0  0  0  0  0  0
    9.6540   19.1130   18.3340   O 0  0  0  0  0  0  0  0  0  0  0  0
    9.9510   18.7710   16.9880   C 0  0  0  0  0  0  0  0  0  0  0  0
   11.4620   18.5440   16.9100   C 0  0  0  0  0  0  0  0  0  0  0  0
   12.2640   18.8000   20.4370   C 0  0  0  0  0  0  0  0  0  0  0  0
   12.8020   18.9740   19.0180   C 0  0  0  0  0  0  0  0  0  0  0  0
   12.6580   20.3310   18.6270   O 0  0  0  0  0  0  0  0  0  0  0  0
   13.7060   20.8650   18.0010   C 0  0  0  0  0  0  0  0  0  0  0  0
   14.7650   20.2900   17.7550   O 0  0  0  0  0  0  0  0  0  0  0  0
   13.4110   22.1310   17.6710   N 0  0  0  0  0  0  0  0  0  0  0  0
   14.3780   22.9360   16.9740   C 0  0  0  0  0  0  0  0  0  0  0  0
   13.7730   23.4800   15.6540   C 0  0  0  0  0  0  0  0  0  0  0  0
   13.2820   22.3100   14.8050   C 0  0  0  0  0  0  0  0  0  0  0  0
   14.1770   21.6480   13.9460   C 0  0  0  0  0  0  0  0  0  0  0  0
   13.7270   20.5610   13.1720   C 0  0  0  0  0  0  0  0  0  0  0  0
   12.3820   20.1390   13.2570   C 0  0  0  0  0  0  0  0  0  0  0  0
   11.4850   20.8040   14.1130   C 0  0  0  0  0  0  0  0  0  0  0  0
   11.9340   21.8890   14.8910   C 0  0  0  0  0  0  0  0  0  0  0  0
   14.8040   24.0680   17.9200   C 0  0  0  0  0  0  0  0  0  0  0  0
   13.6470   24.7650   18.3620   O 0  0  0  0  0  0  0  0  0  0  0  0
   15.7030   25.0420   17.1980   C 0  0  0  0  0  0  0  0  0  0  0  0
   17.1240   24.6670   17.2320   N 0  0  0  0  0  0  0  0  0  0  0  0
   17.8410   24.3110   15.7560   S 0  0  0  0  0  0  0  0  0  0  0  0
   18.5350   22.9740   15.8120   O 0  0  0  0  0  0  0  0  0  0  0  0
   16.7250   24.1020   14.7600   O 0  0  0  0  0  0  0  0  0  0  0  0
   18.7820   25.7020   15.2950   C 0  0  0  0  0  0  0  0  0  0  0  0
   20.1500   25.7970   15.5720   C 0  0  0  0  0  0  0  0  0  0  0  0
   20.8560   26.9620   15.2050   C 0  0  0  0  0  0  0  0  0  0  0  0
   20.1880   28.0360   14.5650   C 0  0  0  0  0  0  0  0  0  0  0  0
   20.8700   29.2130   14.2040   O 0  0  0  0  0  0  0  0  0  0  0  0
   22.2700   29.2720   14.5230   C 0  0  0  0  0  0  0  0  0  0  0  0
   18.8190   27.9220   14.2950   C 0  0  0  0  0  0  0  0  0  0  0  0
   18.1210   26.7660   14.6560   C 0  0  0  0  0  0  0  0  0  0  0  0
   18.0040   24.9860   18.3820   C 0  0  0  0  0  0  0  0  0  0  0  0
   17.7070   24.1090   19.6260   C 0  0  0  0  0  0  0  0  0  0  0  0
   18.7510   24.4240   20.7130   C 0  0  0  0  0  0  0  0  0  0  0  0
   17.7900   22.6080   19.2820   C 0  0  0  0  0  0  0  0  0  0  0  0
  1  6  1  0  0  0  0
  1  8  1  0  0  0  0
  1  3  1  0  0  0  0
  2  3  1  0  0  0  0
  2  7  1  0  0  0  0
  3  4  1  0  0  0  0
  4  5  1  0  0  0  0
  5  6  1  0  0  0  0
  7  8  1  0  0  0  0
  8  9  1  0  0  0  0
  9 10  1  0  0  0  0
 10 12  1  0  0  0  0
 10 11  2  0  0  0  0
 12 13  1  0  0  0  0
 13 14  1  0  0  0  0
 13 21  1  0  0  0  0
 14 15  1  0  0  0  0
 15 16  2  0  0  0  0
 15 20  1  0  0  0  0
 16 17  1  0  0  0  0
 17 18  2  0  0  0  0
 18 19  1  0  0  0  0
 19 20  2  0  0  0  0
 21 23  1  0  0  0  0
 21 22  1  0  0  0  0
 23 24  1  0  0  0  0
 24 25  1  0  0  0  0
 24 36  1  0  0  0  0
 25 27  2  0  0  0  0
 25 28  1  0  0  0  0
 25 26  2  0  0  0  0
 28 35  2  0  0  0  0
 28 29  1  0  0  0  0
 29 30  2  0  0  0  0
 30 31  1  0  0  0  0
 31 32  1  0  0  0  0
 31 34  2  0  0  0  0
 32 33  1  0  0  0  0
 34 35  1  0  0  0  0
 36 37  1  0  0  0  0
 37 39  1  0  0  0  0
 37 38  1  0  0  0  0
M  END
>  <InstanceId>
2I4V_DJR_B_300

>  <ChemCompId>
DJR

>  <PdbId>
2I4V

>  <ChainId>
B

>  <ResidueNumber>
300

>  <InsertionCode>


>  <Model>
1

>  <AltIds>


>  <MissingHeavyAtoms>
0

>  <ObservedFormula>
C28 N2 O8 S

>  <Name>
(3R,3AS,6AR)-HEXAHYDROFURO[2,3-B]FURAN-3-YL [(1S,2R)-1-BENZYL-2-HYDROXY-3-{ISOBUTYL[(4-METHOXYPHENYL)SULFONYL]AMINO}PROPYL]CARBAMATE

>  <SystematicName>
[(3aS,4R,6aR)-2,3,3a,4,5,6a-hexahydrofuro[3,2-d]furan-4-yl] N-[(2S,3R)-3-hydroxy-4-[(4-methoxyphenyl)sulfonyl-(2-methylpropyl)amino]-1-phenyl-butan-2-yl]carbamate

>  <Synonyms>


>  <Type>
NON-POLYMER

>  <Formula>
C28 H38 N2 O8 S

>  <MolecularWeight>
562.675

>  <ModifiedDate>
2011-06-04

>  <Parent>


>  <OneLetterCode>


>  <SubcomponentList>


>  <AmbiguousFlag>


>  <InChI>
InChI=1S/C28H38N2O8S/c1-19(2)16-30(39(33,34)22-11-9-21(35-3)10-12-22)17-25(31)24(15-20-7-5-4-6-8-20)29-28(32)38-26-18-37-27-23(26)13-14-36-27/h4-12,19,23-27,31H,13-18H2,1-3H3,(H,29,32)/t23-,24-,25+,26-,27+/m0/s1

>  <InChIKey>
BINXAIIXOUQUKC-UIPNDDLNSA-N

>  <SMILES>
CC(C)C[N@@](C[C@H]([C@H](Cc1ccccc1)NC(=O)O[C@H]2CO[C@@H]3[C@H]2CCO3)O)S(=O)(=O)c4ccc(cc4)OC

$$$$
