3A2O_KNJ_B_999
  RCSB PDB08012018303D
Coordinates from PDB:3A2O:B:999 Model:1 without hydrogens
 40 42  0  0  0  0            999 V2000
   12.7130   17.7850   21.4510   C 0  0  0  0  0  0  0  0  0  0  0  0
   11.7650   17.5470   20.3170   C 0  0  0  0  0  0  0  0  0  0  0  0
   10.7900   16.5430   20.3800   C 0  0  0  0  0  0  0  0  0  0  0  0
    9.9020   16.2850   19.3570   C 0  0  0  0  0  0  0  0  0  0  0  0
   10.9760   18.0910   18.0940   C 0  0  0  0  0  0  0  0  0  0  0  0
    8.9670   15.3080   19.4530   N 0  0  0  0  0  0  0  0  0  0  0  0
   10.0220   17.0800   18.2210   C 0  0  0  0  0  0  0  0  0  0  0  0
   11.0240   18.9070   16.8340   C 0  0  0  0  0  0  0  0  0  0  0  0
   11.8460   18.3150   19.1800   C 0  0  0  0  0  0  0  0  0  0  0  0
   12.7770   19.3140   19.0470   O 0  0  0  0  0  0  0  0  0  0  0  0
   14.0240   18.8150   18.6060   C 0  0  0  0  0  0  0  0  0  0  0  0
   14.9220   19.9880   18.1900   C 0  0  0  0  0  0  0  0  0  0  0  0
   16.1370   19.7620   18.0700   O 0  0  0  0  0  0  0  0  0  0  0  0
   16.5690   24.1320   18.5140   C 0  0  0  0  0  0  0  0  0  0  0  0
   14.3660   21.1790   17.9830   N 0  0  0  0  0  0  0  0  0  0  0  0
   16.5970   25.1770   17.8480   O 0  0  0  0  0  0  0  0  0  0  0  0
   15.2810   23.3490   18.6880   C 0  0  0  0  0  0  0  0  0  0  0  0
   14.3060   21.9140   15.2100   C 0  0  0  0  0  0  0  0  0  0  0  0
   14.5250   22.9340   16.2820   C 0  0  0  0  0  0  0  0  0  0  0  0
   13.9050   19.8760   13.3500   C 0  0  0  0  0  0  0  0  0  0  0  0
   15.1370   22.3170   17.5390   C 0  0  0  0  0  0  0  0  0  0  0  0
   14.1640   24.1820   18.6920   O 0  0  0  0  0  0  0  0  0  0  0  0
   15.3840   21.4000   14.4500   C 0  0  0  0  0  0  0  0  0  0  0  0
   13.0290   21.4130   14.9900   C 0  0  0  0  0  0  0  0  0  0  0  0
   15.1570   20.3950   13.5230   C 0  0  0  0  0  0  0  0  0  0  0  0
   12.8610   20.3750   14.0450   C 0  0  0  0  0  0  0  0  0  0  0  0
   19.4780   24.1450   17.4670   C 0  0  0  0  0  0  0  0  0  0  0  0
   17.6860   23.6370   19.0540   N 0  0  0  0  0  0  0  0  0  0  0  0
   19.2480   23.1110   16.8400   O 0  0  0  0  0  0  0  0  0  0  0  0
   18.9550   24.3560   18.8850   C 0  0  0  0  0  0  0  0  0  0  0  0
   19.8730   23.8380   20.0240   C 0  0  0  0  0  0  0  0  0  0  0  0
   17.7460   22.4220   19.8900   C 0  0  0  0  0  0  0  0  0  0  0  0
   21.3420   24.0340   19.7270   C 0  0  0  0  0  0  0  0  0  0  0  0
   19.4780   24.5500   21.3290   C 0  0  0  0  0  0  0  0  0  0  0  0
   19.4830   22.0700   20.1240   S 0  0  0  0  0  0  0  0  0  0  0  0
   20.1560   25.1710   16.9610   N 0  0  0  0  0  0  0  0  0  0  0  0
   20.7010   25.1690   15.5940   C 0  0  0  0  0  0  0  0  0  0  0  0
   19.8260   26.0030   14.6830   C 0  0  0  0  0  0  0  0  0  0  0  0
   18.4370   25.5160   14.4550   C 0  0  0  0  0  0  0  0  0  0  0  0
   20.3380   27.1310   14.1250   C 0  0  0  0  0  0  0  0  0  0  0  0
  8  5  1  0  0  0  0
  5  7  2  0  0  0  0
  5  9  1  0  0  0  0
  7  4  1  0  0  0  0
  4  6  1  0  0  0  0
  4  3  2  0  0  0  0
  2  3  1  0  0  0  0
  2  1  1  0  0  0  0
  2  9  2  0  0  0  0
  9 10  1  0  0  0  0
 10 11  1  0  0  0  0
 11 12  1  0  0  0  0
 12 13  2  0  0  0  0
 12 15  1  0  0  0  0
 15 21  1  0  0  0  0
 21 19  1  0  0  0  0
 21 17  1  0  0  0  0
 19 18  1  0  0  0  0
 18 23  2  0  0  0  0
 18 24  1  0  0  0  0
 23 25  1  0  0  0  0
 25 20  2  0  0  0  0
 20 26  1  0  0  0  0
 26 24  2  0  0  0  0
 17 22  1  0  0  0  0
 17 14  1  0  0  0  0
 14 16  2  0  0  0  0
 14 28  1  0  0  0  0
 28 32  1  0  0  0  0
 28 30  1  0  0  0  0
 32 35  1  0  0  0  0
 35 31  1  0  0  0  0
 31 34  1  0  0  0  0
 31 33  1  0  0  0  0
 31 30  1  0  0  0  0
 30 27  1  0  0  0  0
 27 29  2  0  0  0  0
 27 36  1  0  0  0  0
 36 37  1  0  0  0  0
 37 38  1  0  0  0  0
 38 39  1  0  0  0  0
 38 40  2  0  0  0  0
M  END
>  <InstanceId>
3A2O_KNJ_B_999

>  <ChemCompId>
KNJ

>  <PdbId>
3A2O

>  <ChainId>
B

>  <ResidueNumber>
999

>  <InsertionCode>


>  <Model>
1

>  <AltIds>


>  <MissingHeavyAtoms>
0

>  <ObservedFormula>
C30 N4 O5 S

>  <Name>
(4R)-3-[(2S,3S)-3-{[(4-amino-2,6-dimethylphenoxy)acetyl]amino}-2-hydroxy-4-phenylbutanoyl]-5,5-dimethyl-N-(2-methylprop -2-en-1-yl)-1,3-thiazolidine-4-carboxamide

>  <SystematicName>
(4R)-3-[(2S,3S)-3-[2-(4-azanyl-2,6-dimethyl-phenoxy)ethanoylamino]-2-hydroxy-4-phenyl-butanoyl]-5,5-dimethyl-N-(2-methylprop-2-enyl)-1,3-thiazolidine-4-carboxamide

>  <Synonyms>
KNI-1689

>  <Type>
peptide-like

>  <Formula>
C30 H40 N4 O5 S

>  <MolecularWeight>
568.727

>  <ModifiedDate>
2020-06-17

>  <Parent>


>  <OneLetterCode>


>  <SubcomponentList>
K0L 005 00B IRS

>  <AmbiguousFlag>
N

>  <InChI>
InChI=1S/C30H40N4O5S/c1-18(2)15-32-28(37)27-30(5,6)40-17-34(27)29(38)25(36)23(14-21-10-8-7-9-11-21)33-24(35)16-39-26-19(3)12-22(31)13-20(26)4/h7-13,23,25,27,36H,1,14-17,31H2,2-6H3,(H,32,37)(H,33,35)/t23-,25-,27+/m0/s1

>  <InChIKey>
YCDHYYBDJVMMOY-SCTDOJESSA-N

>  <SMILES>
Cc1cc(cc(c1OCC(=O)N[C@@H](Cc2ccccc2)[C@@H](C(=O)N3CSC([C@H]3C(=O)NCC(=C)C)(C)C)O)C)N

$$$$
