5K1F_IMP_A_401
  RCSB PDB08022002003D
Coordinates from PDB:5K1F:A:401 Model:1 without hydrogens
 23 25  0  0  0  0            999 V2000
   -0.6810    1.7380   18.5100   P 0  0  0  0  0  0  0  0  0  0  0  0
   -1.8860    2.2060   17.7130   O 0  0  0  0  0  0  0  0  0  0  0  0
   -0.0350    2.7970   19.3730   O 0  0  0  0  0  0  0  0  0  0  0  0
    0.3540    1.0610   17.6090   O 0  0  0  0  0  0  0  0  0  0  0  0
   -1.1590    0.6270   19.5490   O 0  0  0  0  0  0  0  0  0  0  0  0
   -2.2080    0.8940   20.4770   C 0  0  0  0  0  0  0  0  0  0  0  0
   -1.9970    0.1660   21.7870   C 0  0  0  0  0  0  0  0  0  0  0  0
   -2.3110   -1.2480   21.6220   O 0  0  0  0  0  0  0  0  0  0  0  0
   -0.5720    0.2220   22.3490   C 0  0  0  0  0  0  0  0  0  0  0  0
   -0.6390    0.2960   23.7720   O 0  0  0  0  0  0  0  0  0  0  0  0
    0.0030   -1.1320   21.9370   C 0  0  0  0  0  0  0  0  0  0  0  0
    1.1040   -1.5840   22.7080   O 0  0  0  0  0  0  0  0  0  0  0  0
   -1.2250   -2.0270   22.0910   C 0  0  0  0  0  0  0  0  0  0  0  0
   -1.1650   -3.2680   21.3150   N 0  0  0  0  0  0  0  0  0  0  0  0
   -0.6000   -3.4480   20.0760   C 0  0  0  0  0  0  0  0  0  0  0  0
   -0.7670   -4.7390   19.7130   N 0  0  0  0  0  0  0  0  0  0  0  0
   -1.4370   -5.3840   20.7010   C 0  0  0  0  0  0  0  0  0  0  0  0
   -1.8720   -6.7030   20.8450   C 0  0  0  0  0  0  0  0  0  0  0  0
   -1.5520   -7.5550   20.0080   O 0  0  0  0  0  0  0  0  0  0  0  0
   -2.5550   -7.0690   21.9960   N 0  0  0  0  0  0  0  0  0  0  0  0
   -2.8050   -6.1390   22.9890   C 0  0  0  0  0  0  0  0  0  0  0  0
   -2.3710   -4.8340   22.8430   N 0  0  0  0  0  0  0  0  0  0  0  0
   -1.7000   -4.4660   21.7160   C 0  0  0  0  0  0  0  0  0  0  0  0
  1  2  2  0  0  0  0
  1  3  1  0  0  0  0
  1  4  1  0  0  0  0
  1  5  1  0  0  0  0
  5  6  1  0  0  0  0
  6  7  1  0  0  0  0
  7  8  1  0  0  0  0
  7  9  1  0  0  0  0
  8 13  1  0  0  0  0
  9 10  1  0  0  0  0
  9 11  1  0  0  0  0
 11 12  1  0  0  0  0
 11 13  1  0  0  0  0
 13 14  1  0  0  0  0
 14 15  1  0  0  0  0
 14 23  1  0  0  0  0
 15 16  2  0  0  0  0
 16 17  1  0  0  0  0
 17 18  1  0  0  0  0
 17 23  2  0  0  0  0
 18 19  2  0  0  0  0
 18 20  1  0  0  0  0
 20 21  1  0  0  0  0
 21 22  2  0  0  0  0
 22 23  1  0  0  0  0
M  END
>  <InstanceId>
5K1F_IMP_A_401

>  <ChemCompId>
IMP

>  <PdbId>
5K1F

>  <ChainId>
A

>  <ResidueNumber>
401

>  <InsertionCode>


>  <Model>
1

>  <AltIds>


>  <MissingHeavyAtoms>
0

>  <ObservedFormula>
C10 N4 O8 P

>  <Name>
INOSINIC ACID

>  <SystematicName>
[(2R,3S,4R,5R)-3,4-dihydroxy-5-(6-oxo-1H-purin-9-yl)oxolan-2-yl]methyl dihydrogen phosphate

>  <Synonyms>


>  <Type>
NON-POLYMER

>  <Formula>
C10 H13 N4 O8 P

>  <MolecularWeight>
348.206

>  <ModifiedDate>
2012-01-05

>  <Parent>
G

>  <OneLetterCode>


>  <SubcomponentList>


>  <AmbiguousFlag>
N

>  <InChI>
InChI=1S/C10H13N4O8P/c15-6-4(1-21-23(18,19)20)22-10(7(6)16)14-3-13-5-8(14)11-2-12-9(5)17/h2-4,6-7,10,15-16H,1H2,(H,11,12,17)(H2,18,19,20)/t4-,6-,7-,10-/m1/s1

>  <InChIKey>
GRSZFWQUAKGDAV-KQYNXXCUSA-N

>  <SMILES>
c1nc2c(n1[C@H]3[C@@H]([C@@H]([C@H](O3)COP(=O)(O)O)O)O)N=CNC2=O

$$$$
