4KYH_ZST_A_203
  RCSB PDB08012022193D
Coordinates from PDB:4KYH:A:203 Model:1 without hydrogens
 29 32  0  0  0  0            999 V2000
   -5.0530   14.0640   -0.7170   C 0  0  0  0  0  0  0  0  0  0  0  0
   -6.1380   14.5980   -0.7280   O 0  0  0  0  0  0  0  0  0  0  0  0
   -4.7730   12.8930    0.1170   C 0  0  0  0  0  0  0  0  0  0  0  0
   -3.5290   12.2250    0.0300   C 0  0  0  0  0  0  0  0  0  0  0  0
   -2.5260   12.8100   -0.9090   C 0  0  0  0  0  0  0  0  0  0  0  0
   -5.7740   12.3970    0.9600   C 0  0  0  0  0  0  0  0  0  0  0  0
   -5.5560   11.2380    1.6860   C 0  0  0  0  0  0  0  0  0  0  0  0
   -4.3490   10.5660    1.5820   C 0  0  0  0  0  0  0  0  0  0  0  0
   -3.3350   11.0550    0.7640   C 0  0  0  0  0  0  0  0  0  0  0  0
   -3.9710   14.5020   -1.5860   N 0  0  0  0  0  0  0  0  0  0  0  0
   -2.7350   13.8550   -1.6450   N 0  0  0  0  0  0  0  0  0  0  0  0
   -4.1750   15.6570   -2.4450   C 0  0  0  0  0  0  0  0  0  0  0  0
   -4.0950   16.9250   -1.6500   C 0  0  0  0  0  0  0  0  0  0  0  0
   -3.3380   18.6480   -0.1060   C 0  0  0  0  0  0  0  0  0  0  0  0
   -4.5900   18.8560   -0.6970   C 0  0  0  0  0  0  0  0  0  0  0  0
   -2.8020   19.5640    0.7940   C 0  0  0  0  0  0  0  0  0  0  0  0
   -3.5230   20.7110    1.0720   C 0  0  0  0  0  0  0  0  0  0  0  0
   -4.7540   20.9460    0.4740   C 0  0  0  0  0  0  0  0  0  0  0  0
   -5.2980   20.0160   -0.4100   C 0  0  0  0  0  0  0  0  0  0  0  0
   -5.0010   17.8440   -1.5690   N 0  0  0  0  0  0  0  0  0  0  0  0
   -2.6540   17.1730   -0.6910   S 0  0  0  0  0  0  0  0  0  0  0  0
   -1.1390   12.2140   -1.0160   C 0  0  0  0  0  0  0  0  0  0  0  0
   -0.3280   12.3220    0.2530   C 0  0  0  0  0  0  0  0  0  0  0  0
   -0.8250   13.1350    1.1520   O 0  0  0  0  0  0  0  0  0  0  0  0
    0.6940   11.6850    0.4360   O 0  0  0  0  0  0  0  0  0  0  0  0
   -5.4900   22.1960    0.7790   C 0  0  0  0  0  0  0  0  0  0  0  0
   -6.5580   21.9620    1.5400   F 0  0  0  0  0  0  0  0  0  0  0  0
   -4.7060   22.9820    1.4370   F 0  0  0  0  0  0  0  0  0  0  0  0
   -5.8900   22.9080   -0.3210   F 0  0  0  0  0  0  0  0  0  0  0  0
  1  2  2  0  0  0  0
  1  3  1  0  0  0  0
  1 10  1  0  0  0  0
  3  4  2  0  0  0  0
  3  6  1  0  0  0  0
  4  5  1  0  0  0  0
  4  9  1  0  0  0  0
  5 11  2  0  0  0  0
  5 22  1  0  0  0  0
  6  7  2  0  0  0  0
  7  8  1  0  0  0  0
  8  9  2  0  0  0  0
 10 11  1  0  0  0  0
 10 12  1  0  0  0  0
 12 13  1  0  0  0  0
 13 20  2  0  0  0  0
 13 21  1  0  0  0  0
 14 15  2  0  0  0  0
 14 16  1  0  0  0  0
 14 21  1  0  0  0  0
 15 19  1  0  0  0  0
 15 20  1  0  0  0  0
 16 17  2  0  0  0  0
 17 18  1  0  0  0  0
 18 19  2  0  0  0  0
 18 26  1  0  0  0  0
 22 23  1  0  0  0  0
 23 24  2  0  0  0  0
 23 25  1  0  0  0  0
 26 27  1  0  0  0  0
 26 28  1  0  0  0  0
 26 29  1  0  0  0  0
M  END
>  <InstanceId>
4KYH_ZST_A_203

>  <ChemCompId>
ZST

>  <PdbId>
4KYH

>  <ChainId>
A

>  <ResidueNumber>
203

>  <InsertionCode>


>  <Model>
1

>  <AltIds>


>  <MissingHeavyAtoms>
0

>  <ObservedFormula>
C19 N3 O3 S F3

>  <Name>
3,4-DIHYDRO-4-OXO-3-((5-TRIFLUOROMETHYL-2-BENZOTHIAZOLYL)METHYL)-1-PHTHALAZINE ACETIC ACID

>  <SystematicName>
2-[4-oxo-3-[[5-(trifluoromethyl)-1,3-benzothiazol-2-yl]methyl]phthalazin-1-yl]ethanoic acid

>  <Synonyms>


>  <Type>
NON-POLYMER

>  <Formula>
C19 H12 F3 N3 O3 S

>  <MolecularWeight>
419.377

>  <ModifiedDate>
2011-06-04

>  <Parent>


>  <OneLetterCode>


>  <SubcomponentList>


>  <AmbiguousFlag>
N

>  <InChI>
InChI=1S/C19H12F3N3O3S/c20-19(21,22)10-5-6-15-14(7-10)23-16(29-15)9-25-18(28)12-4-2-1-3-11(12)13(24-25)8-17(26)27/h1-7H,8-9H2,(H,26,27)

>  <InChIKey>
BCSVCWVQNOXFGL-UHFFFAOYSA-N

>  <SMILES>
c1ccc2c(c1)C(=NN(C2=O)Cc3nc4cc(ccc4s3)C(F)(F)F)CC(=O)O

$$$$
