3I9G_S1P_L_401
  RCSB PDB08012019183D
Coordinates from PDB:3I9G:L:401 Model:1 without hydrogens
 25 24  0  0  0  0            999 V2000
    1.1760   14.7560   38.5570   C 0  0  0  0  0  0  0  0  0  0  0  0
    2.5760   15.0240   38.4680   O 0  0  0  0  0  0  0  0  0  0  0  0
    0.6880   14.3200   37.1820   C 0  0  0  0  0  0  0  0  0  0  0  0
    1.3870   13.0990   36.7580   N 0  0  0  0  0  0  0  0  0  0  0  0
    0.9260   15.4380   36.1540   C 0  0  0  0  0  0  0  0  0  0  0  0
    0.0420   16.5200   36.4520   O 0  0  0  0  0  0  0  0  0  0  0  0
    0.6190   14.9580   34.7490   C 0  0  0  0  0  0  0  0  0  0  0  0
    1.5760   15.0020   33.8280   C 0  0  0  0  0  0  0  0  0  0  0  0
    1.2970   14.5280   32.4220   C 0  0  0  0  0  0  0  0  0  0  0  0
    1.7270   15.6480   31.4700   C 0  0  0  0  0  0  0  0  0  0  0  0
    0.5170   16.1000   30.6910   C 0  0  0  0  0  0  0  0  0  0  0  0
   -0.2110   17.3160   31.2030   C 0  0  0  0  0  0  0  0  0  0  0  0
   -0.6850   18.0290   29.9490   C 0  0  0  0  0  0  0  0  0  0  0  0
   -2.1900   17.9870   29.6930   C 0  0  0  0  0  0  0  0  0  0  0  0
   -2.4610   18.5280   28.2870   C 0  0  0  0  0  0  0  0  0  0  0  0
   -3.4740   19.6620   28.3910   C 0  0  0  0  0  0  0  0  0  0  0  0
   -3.5330   20.6290   27.1900   C 0  0  0  0  0  0  0  0  0  0  0  0
   -2.7350   21.9200   27.4140   C 0  0  0  0  0  0  0  0  0  0  0  0
   -3.1600   22.7410   28.6320   C 0  0  0  0  0  0  0  0  0  0  0  0
   -2.2580   23.9510   28.7960   C 0  0  0  0  0  0  0  0  0  0  0  0
   -2.8160   24.9620   29.7800   C 0  0  0  0  0  0  0  0  0  0  0  0
    3.6270   14.2890   39.4550   P 0  0  0  0  0  0  0  0  0  0  0  0
    3.0530   14.3370   40.8090   O 0  0  0  0  0  0  0  0  0  0  0  0
    4.8970   15.0190   39.1860   O 0  0  0  0  0  0  0  0  0  0  0  0
    3.7750   12.8800   38.8880   O 0  0  0  0  0  0  0  0  0  0  0  0
  3  1  1  0  0  0  0
  2  1  1  0  0  0  0
  2 22  1  0  0  0  0
  5  3  1  0  0  0  0
  4  3  1  0  0  0  0
  7  5  1  0  0  0  0
  5  6  1  0  0  0  0
  8  7  2  0  0  0  0
  9  8  1  0  0  0  0
 10  9  1  0  0  0  0
 11 10  1  0  0  0  0
 11 12  1  0  0  0  0
 13 12  1  0  0  0  0
 14 13  1  0  0  0  0
 15 14  1  0  0  0  0
 15 16  1  0  0  0  0
 17 16  1  0  0  0  0
 17 18  1  0  0  0  0
 18 19  1  0  0  0  0
 19 20  1  0  0  0  0
 20 21  1  0  0  0  0
 25 22  2  0  0  0  0
 24 22  1  0  0  0  0
 22 23  1  0  0  0  0
M  END
>  <InstanceId>
3I9G_S1P_L_401

>  <ChemCompId>
S1P

>  <PdbId>
3I9G

>  <ChainId>
L

>  <ResidueNumber>
401

>  <InsertionCode>


>  <Model>
1

>  <AltIds>


>  <MissingHeavyAtoms>
0

>  <ObservedFormula>
C18 N O5 P

>  <Name>
(2S,3R,4E)-2-amino-3-hydroxyoctadec-4-en-1-yl dihydrogen phosphate

>  <SystematicName>
[(E,2S,3R)-2-azanyl-3-hydroxy-octadec-4-enyl] dihydrogen phosphate

>  <Synonyms>
sphingosine 1-phosphate

>  <Type>
NON-POLYMER

>  <Formula>
C18 H38 N O5 P

>  <MolecularWeight>
379.472

>  <ModifiedDate>
2020-06-17

>  <Parent>


>  <OneLetterCode>


>  <SubcomponentList>


>  <AmbiguousFlag>
N

>  <InChI>
InChI=1S/C18H38NO5P/c1-2-3-4-5-6-7-8-9-10-11-12-13-14-15-18(20)17(19)16-24-25(21,22)23/h14-15,17-18,20H,2-13,16,19H2,1H3,(H2,21,22,23)/b15-14+/t17-,18+/m0/s1

>  <InChIKey>
DUYSYHSSBDVJSM-KRWOKUGFSA-N

>  <SMILES>
CCCCCCCCCCCCC/C=C/[C@H]([C@H](COP(=O)(O)O)N)O

$$$$
