1O3D_780_A_246
  RCSB PDB08012015363D
Coordinates from PDB:1O3D:A:246 Model:1 without hydrogens
 25 28  0  0  0  0            999 V2000
   44.0740   -3.0450   26.1440   C 0  0  0  0  0  0  0  0  0  0  0  0
   44.3730   -1.6480   26.1430   C 0  0  0  0  0  0  0  0  0  0  0  0
   44.2860   -0.8450   27.2840   C 0  0  0  0  0  0  0  0  0  0  0  0
   43.8980   -1.4660   28.4440   C 0  0  0  0  0  0  0  0  0  0  0  0
   43.6130   -2.7750   28.5110   C 0  0  0  0  0  0  0  0  0  0  0  0
   43.6830   -3.6180   27.3890   C 0  0  0  0  0  0  0  0  0  0  0  0
   44.1900   -3.7910   24.9550   C 0  0  0  0  0  0  0  0  0  0  0  0
   43.9180   -5.0750   24.9340   N 0  0  0  0  0  0  0  0  0  0  0  0
   44.5740   -3.1680   23.8560   N 0  3  0  0  0  0  0  0  0  0  0  0
   43.7480   -1.0060   29.6280   N 0  0  0  0  0  0  0  0  0  0  0  0
   43.2670   -3.1460   29.7330   N 0  0  0  0  0  0  0  0  0  0  0  0
   43.3750   -1.9840   30.3600   C 0  0  0  0  0  0  0  0  0  0  0  0
   43.1120   -1.8690   31.7450   C 0  0  0  0  0  0  0  0  0  0  0  0
   42.7840   -2.9940   32.5200   C 0  0  0  0  0  0  0  0  0  0  0  0
   42.5220   -2.8930   33.8830   C 0  0  0  0  0  0  0  0  0  0  0  0
   42.5840   -1.6720   34.5030   C 0  0  0  0  0  0  0  0  0  0  0  0
   42.9040   -0.5010   33.8060   C 0  0  0  0  0  0  0  0  0  0  0  0
   43.1620   -0.6300   32.4260   C 0  0  0  0  0  0  0  0  0  0  0  0
   43.4600    0.5010   31.7040   O 0  5  0  0  0  0  0  0  0  0  0  0
   42.9640    0.7150   34.5110   C 0  0  0  0  0  0  0  0  0  0  0  0
   44.1120    1.5220   34.5090   C 0  0  0  0  0  0  0  0  0  0  0  0
   44.1810    2.7080   35.2320   C 0  0  0  0  0  0  0  0  0  0  0  0
   43.0960    3.1220   35.9770   C 0  0  0  0  0  0  0  0  0  0  0  0
   41.9460    2.3580   36.0050   C 0  0  0  0  0  0  0  0  0  0  0  0
   41.8830    1.1720   35.2810   C 0  0  0  0  0  0  0  0  0  0  0  0
  1  2  2  0  0  0  0
  1  6  1  0  0  0  0
  1  7  1  0  0  0  0
  2  3  1  0  0  0  0
  3  4  2  0  0  0  0
  4  5  1  0  0  0  0
  4 10  1  0  0  0  0
  5  6  2  0  0  0  0
  5 11  1  0  0  0  0
  7  8  1  0  0  0  0
  7  9  2  0  0  0  0
 10 12  1  0  0  0  0
 11 12  2  0  0  0  0
 12 13  1  0  0  0  0
 13 14  2  0  0  0  0
 13 18  1  0  0  0  0
 14 15  1  0  0  0  0
 15 16  2  0  0  0  0
 16 17  1  0  0  0  0
 17 18  2  0  0  0  0
 17 20  1  0  0  0  0
 18 19  1  0  0  0  0
 20 21  2  0  0  0  0
 20 25  1  0  0  0  0
 21 22  1  0  0  0  0
 22 23  2  0  0  0  0
 23 24  1  0  0  0  0
 24 25  2  0  0  0  0
M  CHG  2   9   1  19  -1
M  END
>  <InstanceId>
1O3D_780_A_246

>  <ChemCompId>
780

>  <PdbId>
1O3D

>  <ChainId>
A

>  <ResidueNumber>
246

>  <InsertionCode>


>  <Model>
1

>  <AltIds>


>  <MissingHeavyAtoms>
0

>  <ObservedFormula>
C20 N4 O

>  <Name>
3-{5-[AMINO(IMINIO)METHYL]-1H-BENZIMIDAZOL-2-YL}-1,1'-BIPHENYL-2-OLATE

>  <SystematicName>
2-[5-(amino-azaniumylidene-methyl)-1H-benzimidazol-2-yl]-6-phenyl-phenolate

>  <Synonyms>
CRA_7806

>  <Type>
NON-POLYMER

>  <Formula>
C20 H16 N4 O

>  <MolecularWeight>
328.367

>  <ModifiedDate>
2011-06-04

>  <Parent>


>  <OneLetterCode>


>  <SubcomponentList>


>  <AmbiguousFlag>
N

>  <InChI>
InChI=1S/C20H16N4O/c21-19(22)13-9-10-16-17(11-13)24-20(23-16)15-8-4-7-14(18(15)25)12-5-2-1-3-6-12/h1-11,25H,(H3,21,22)(H,23,24)

>  <InChIKey>
LMGQGPVCSYOMNS-UHFFFAOYSA-N

>  <SMILES>
c1ccc(cc1)c2cccc(c2[O-])c3[nH]c4ccc(cc4n3)C(=[NH2+])N

$$$$
