3B7R_BIR_L_1001
  RCSB PDB08012018373D
Coordinates from PDB:3B7R:L:1001 Model:1 without hydrogens
 29 30  0  0  0  0            999 V2000
   32.8250    2.6140    0.8130   C 0  0  0  0  0  0  0  0  0  0  0  0
   34.2170    2.3640    1.4430   C 0  0  0  0  0  0  0  0  0  0  0  0
   34.1820    1.3220    2.4450   N 0  0  0  0  0  0  0  0  0  0  0  0
   34.9260    3.8990    2.2280   P 0  0  0  0  0  0  0  0  0  0  0  0
   36.3960    3.6750    2.6340   O 0  0  0  0  0  0  0  0  0  0  0  0
   34.0400    4.0820    3.5170   O 0  0  0  0  0  0  0  0  0  0  0  0
   34.5310    5.3200    1.1620   C 0  0  0  0  0  0  0  0  0  0  0  0
   34.7190    6.6990    1.7610   C 0  0  0  0  0  0  0  0  0  0  0  0
   34.4030    7.6590    0.6470   C 0  0  0  0  0  0  0  0  0  0  0  0
   35.0260    7.5960   -0.3910   O 0  0  0  0  0  0  0  0  0  0  0  0
   33.1880    8.2850    0.7060   N 0  0  0  0  0  0  0  0  0  0  0  0
   32.6930    9.0770   -0.3730   C 0  0  0  0  0  0  0  0  0  0  0  0
   31.4260    9.8110    0.0460   C 0  0  0  0  0  0  0  0  0  0  0  0
   33.7680   10.1380   -0.7670   C 0  0  0  0  0  0  0  0  0  0  0  0
   33.9410   10.2050   -2.0880   O 0  0  0  0  0  0  0  0  0  0  0  0
   34.3970   10.8460    0.0160   O 0  0  0  0  0  0  0  0  0  0  0  0
   36.1370    7.0320    2.2490   C 0  0  0  0  0  0  0  0  0  0  0  0
   36.2480    8.4320    2.8160   C 0  0  0  0  0  0  0  0  0  0  0  0
   36.3890    9.5610    1.9820   C 0  0  0  0  0  0  0  0  0  0  0  0
   36.3110   10.8720    2.4490   C 0  0  0  0  0  0  0  0  0  0  0  0
   36.1590   11.0730    3.8250   C 0  0  0  0  0  0  0  0  0  0  0  0
   35.9600    9.9610    4.6360   C 0  0  0  0  0  0  0  0  0  0  0  0
   36.0170    8.6500    4.1580   C 0  0  0  0  0  0  0  0  0  0  0  0
   36.0680   12.4610    4.3410   C 0  0  0  0  0  0  0  0  0  0  0  0
   35.2070   12.7980    5.4030   C 0  0  0  0  0  0  0  0  0  0  0  0
   35.1200   14.1300    5.8460   C 0  0  0  0  0  0  0  0  0  0  0  0
   35.8640   15.1660    5.2190   C 0  0  0  0  0  0  0  0  0  0  0  0
   36.7050   14.8250    4.1400   C 0  0  0  0  0  0  0  0  0  0  0  0
   36.7770   13.5090    3.6730   C 0  0  0  0  0  0  0  0  0  0  0  0
  1  2  1  0  0  0  0
  2  3  1  0  0  0  0
  2  4  1  0  0  0  0
  4  5  2  0  0  0  0
  4  6  1  0  0  0  0
  4  7  1  0  0  0  0
  7  8  1  0  0  0  0
  8  9  1  0  0  0  0
  8 17  1  0  0  0  0
  9 10  2  0  0  0  0
  9 11  1  0  0  0  0
 11 12  1  0  0  0  0
 12 13  1  0  0  0  0
 12 14  1  0  0  0  0
 14 15  1  0  0  0  0
 14 16  2  0  0  0  0
 17 18  1  0  0  0  0
 18 19  2  0  0  0  0
 18 23  1  0  0  0  0
 19 20  1  0  0  0  0
 20 21  2  0  0  0  0
 21 22  1  0  0  0  0
 21 24  1  0  0  0  0
 22 23  2  0  0  0  0
 24 25  2  0  0  0  0
 24 29  1  0  0  0  0
 25 26  1  0  0  0  0
 26 27  2  0  0  0  0
 27 28  1  0  0  0  0
 28 29  2  0  0  0  0
M  END
>  <InstanceId>
3B7R_BIR_L_1001

>  <ChemCompId>
BIR

>  <PdbId>
3B7R

>  <ChainId>
L

>  <ResidueNumber>
1001

>  <InsertionCode>


>  <Model>
1

>  <AltIds>


>  <MissingHeavyAtoms>
0

>  <ObservedFormula>
C21 N2 O5 P

>  <Name>
N-[3-[(1-AMINOETHYL)(HYDROXY)PHOSPHORYL]-2-(1,1'-BIPHENYL-4-YLMETHYL)PROPANOYL]ALANINE

>  <SystematicName>
(2S)-2-[[(2S)-2-[[[(1R)-1-aminoethyl]-hydroxy-phosphoryl]methyl]-3-(4-phenylphenyl)propanoyl]amino]propanoic acid

>  <Synonyms>


>  <Type>
NON-POLYMER

>  <Formula>
C21 H27 N2 O5 P

>  <MolecularWeight>
418.423

>  <ModifiedDate>
2011-06-04

>  <Parent>


>  <OneLetterCode>


>  <SubcomponentList>


>  <AmbiguousFlag>
N

>  <InChI>
InChI=1S/C21H27N2O5P/c1-14(21(25)26)23-20(24)19(13-29(27,28)15(2)22)12-16-8-10-18(11-9-16)17-6-4-3-5-7-17/h3-11,14-15,19H,12-13,22H2,1-2H3,(H,23,24)(H,25,26)(H,27,28)/t14-,15+,19+/m0/s1

>  <InChIKey>
CWJPVKSBGVPXRD-QMTMVMCOSA-N

>  <SMILES>
C[C@@H](C(=O)O)NC(=O)[C@H](Cc1ccc(cc1)c2ccccc2)C[P@@](=O)([C@H](C)N)O

$$$$
