2RCN_GDP_A_600
  RCSB PDB08012017543D
Coordinates from PDB:2RCN:A:600 Model:1 without hydrogens
 28 30  0  0  0  0            999 V2000
   18.3700   65.5040  -14.1160   P 0  0  0  0  0  0  0  0  0  0  0  0
   17.8300   66.0120  -12.8320   O 0  0  0  0  0  0  0  0  0  0  0  0
   17.3780   65.9200  -15.3050   O 0  0  0  0  0  0  0  0  0  0  0  0
   18.4630   63.9020  -14.0360   O 0  0  0  0  0  0  0  0  0  0  0  0
   19.8240   66.1860  -14.3680   O 0  0  0  0  0  0  0  0  0  0  0  0
   20.8560   65.1870  -15.1540   P 0  0  0  0  0  0  0  0  0  0  0  0
   20.2310   64.6020  -16.3640   O 0  0  0  0  0  0  0  0  0  0  0  0
   21.3190   64.0030  -14.1730   O 0  0  0  0  0  0  0  0  0  0  0  0
   22.1630   66.0400  -15.5680   O 0  0  0  0  0  0  0  0  0  0  0  0
   21.7500   67.1750  -16.3510   C 0  0  0  0  0  0  0  0  0  0  0  0
   22.9950   68.0110  -16.7290   C 0  0  0  0  0  0  0  0  0  0  0  0
   23.6530   68.5040  -15.5170   O 0  0  0  0  0  0  0  0  0  0  0  0
   24.0730   67.1810  -17.5110   C 0  0  0  0  0  0  0  0  0  0  0  0
   23.5320   65.9840  -18.0880   O 0  0  0  0  0  0  0  0  0  0  0  0
   25.0960   66.8430  -16.4230   C 0  0  0  0  0  0  0  0  0  0  0  0
   26.3900   66.6300  -16.9800   O 0  0  0  0  0  0  0  0  0  0  0  0
   25.0550   68.1240  -15.5790   C 0  0  0  0  0  0  0  0  0  0  0  0
   25.5980   67.9090  -14.2360   N 0  0  0  0  0  0  0  0  0  0  0  0
   25.1310   67.0230  -13.2920   C 0  0  0  0  0  0  0  0  0  0  0  0
   25.7590   67.1960  -12.1630   N 0  0  0  0  0  0  0  0  0  0  0  0
   26.5880   68.2580  -12.2780   C 0  0  0  0  0  0  0  0  0  0  0  0
   27.5790   68.8470  -11.4360   C 0  0  0  0  0  0  0  0  0  0  0  0
   27.7180   68.4680  -10.2870   O 0  0  0  0  0  0  0  0  0  0  0  0
   28.2810   69.9310  -11.9070   N 0  0  0  0  0  0  0  0  0  0  0  0
   28.1700   70.3190  -13.2280   C 0  0  0  0  0  0  0  0  0  0  0  0
   29.0040   71.2880  -13.7220   N 0  0  0  0  0  0  0  0  0  0  0  0
   27.3130   69.7160  -14.0470   N 0  0  0  0  0  0  0  0  0  0  0  0
   26.4730   68.7440  -13.6070   C 0  0  0  0  0  0  0  0  0  0  0  0
  1  2  2  0  0  0  0
  1  3  1  0  0  0  0
  1  4  1  0  0  0  0
  1  5  1  0  0  0  0
  5  6  1  0  0  0  0
  6  7  2  0  0  0  0
  6  8  1  0  0  0  0
  6  9  1  0  0  0  0
  9 10  1  0  0  0  0
 10 11  1  0  0  0  0
 11 12  1  0  0  0  0
 11 13  1  0  0  0  0
 12 17  1  0  0  0  0
 13 14  1  0  0  0  0
 13 15  1  0  0  0  0
 15 16  1  0  0  0  0
 15 17  1  0  0  0  0
 17 18  1  0  0  0  0
 18 19  1  0  0  0  0
 18 28  1  0  0  0  0
 19 20  2  0  0  0  0
 20 21  1  0  0  0  0
 21 22  1  0  0  0  0
 21 28  2  0  0  0  0
 22 23  2  0  0  0  0
 22 24  1  0  0  0  0
 24 25  1  0  0  0  0
 25 26  1  0  0  0  0
 25 27  2  0  0  0  0
 27 28  1  0  0  0  0
M  END
>  <InstanceId>
2RCN_GDP_A_600

>  <ChemCompId>
GDP

>  <PdbId>
2RCN

>  <ChainId>
A

>  <ResidueNumber>
600

>  <InsertionCode>


>  <Model>
1

>  <AltIds>


>  <MissingHeavyAtoms>
0

>  <ObservedFormula>
C10 N5 O11 P2

>  <Name>
GUANOSINE-5'-DIPHOSPHATE

>  <SystematicName>
[(2R,3S,4R,5R)-5-(2-azanyl-6-oxidanylidene-1H-purin-9-yl)-3,4-bis(oxidanyl)oxolan-2-yl]methyl phosphono hydrogen phosphate

>  <Synonyms>


>  <Type>
RNA LINKING

>  <Formula>
C10 H15 N5 O11 P2

>  <MolecularWeight>
443.201

>  <ModifiedDate>
2014-05-12

>  <Parent>
G

>  <OneLetterCode>
G

>  <SubcomponentList>


>  <AmbiguousFlag>
N

>  <InChI>
InChI=1S/C10H15N5O11P2/c11-10-13-7-4(8(18)14-10)12-2-15(7)9-6(17)5(16)3(25-9)1-24-28(22,23)26-27(19,20)21/h2-3,5-6,9,16-17H,1H2,(H,22,23)(H2,19,20,21)(H3,11,13,14,18)/t3-,5-,6-,9-/m1/s1

>  <InChIKey>
QGWNDRXFNXRZMB-UUOKFMHZSA-N

>  <SMILES>
c1nc2c(n1[C@H]3[C@@H]([C@@H]([C@H](O3)CO[P@](=O)(O)OP(=O)(O)O)O)O)N=C(NC2=O)N

$$$$
