6CKW_F6D_A_201
  RCSB PDB08022004153D
Coordinates from PDB:6CKW:A:201 Model:1 without hydrogens
 34 37  0  0  0  0            999 V2000
   29.7740  -15.4730   28.9470   C 0  0  0  0  0  0  0  0  0  0  0  0
   30.4020  -16.3580   28.0720   C 0  0  0  0  0  0  0  0  0  0  0  0
   30.0900  -16.3150   26.7190   C 0  0  0  0  0  0  0  0  0  0  0  0
   30.4890   -9.9700   32.0570   C 0  0  0  0  0  0  0  0  0  0  0  0
   31.8560  -10.3140   32.5630   C 0  0  0  0  0  0  0  0  0  0  0  0
   28.5810   -8.7430   32.2840   C 0  0  0  0  0  0  0  0  0  0  0  0
   26.5890   -8.1040   32.0460   C 0  0  0  0  0  0  0  0  0  0  0  0
   24.1750   -7.6910   31.6650   C 0  0  0  0  0  0  0  0  0  0  0  0
   23.1810   -6.5510   31.9700   C 0  0  0  0  0  0  0  0  0  0  0  0
   21.9100   -6.6770   31.2700   C 0  0  0  0  0  0  0  0  0  0  0  0
   23.6500   -9.0320   32.1650   C 0  0  0  0  0  0  0  0  0  0  0  0
   22.9230   -9.8780   31.3310   C 0  0  0  0  0  0  0  0  0  0  0  0
   22.4530  -11.0990   31.7940   C 0  0  0  0  0  0  0  0  0  0  0  0
   22.7020  -11.4950   33.1020   C 0  0  0  0  0  0  0  0  0  0  0  0
   23.4330  -10.6520   33.9210   C 0  0  0  0  0  0  0  0  0  0  0  0
   23.9110   -9.4350   33.4730   C 0  0  0  0  0  0  0  0  0  0  0  0
   23.7150  -11.1070   35.5790  Cl 0  0  0  0  0  0  0  0  0  0  0  0
   20.9340   -6.7390   30.7150   N 0  0  0  0  0  0  0  0  0  0  0  0
   25.4500   -7.3580   32.2960   N 0  0  0  0  0  0  0  0  0  0  0  0
   27.7270   -7.8260   32.7370   N 0  0  0  0  0  0  0  0  0  0  0  0
   26.6490   -9.0890   31.1650   N 0  0  0  0  0  0  0  0  0  0  0  0
   27.9520   -9.4980   31.3210   N 0  0  0  0  0  0  0  0  0  0  0  0
   29.8580   -8.9680   32.6710   N 0  0  0  0  0  0  0  0  0  0  0  0
   29.8980  -10.7340   31.0190   C 0  0  0  0  0  0  0  0  0  0  0  0
   28.5830  -10.4990   30.6300   C 0  0  0  0  0  0  0  0  0  0  0  0
   27.8290  -11.1240   29.6960   N 0  0  0  0  0  0  0  0  0  0  0  0
   28.3840  -12.1910   28.8820   C 0  0  0  0  0  0  0  0  0  0  0  0
   28.1550  -13.5970   29.4670   C 0  0  0  0  0  0  0  0  0  0  0  0
   26.7070  -13.8340   29.5470   N 0  0  0  0  0  0  0  0  0  0  0  0
   28.8370  -14.5510   28.4850   C 0  0  0  0  0  0  0  0  0  0  0  0
   30.0120  -15.4380   30.2960   O 0  0  0  0  0  0  0  0  0  0  0  0
   30.9190  -16.4010   30.8290   C 0  0  0  0  0  0  0  0  0  0  0  0
   28.5470  -14.5270   27.1210   C 0  0  0  0  0  0  0  0  0  0  0  0
   29.1670  -15.4000   26.2450   C 0  0  0  0  0  0  0  0  0  0  0  0
 34  3  2  0  0  0  0
 34 33  1  0  0  0  0
  3  2  1  0  0  0  0
 33 30  2  0  0  0  0
  2  1  2  0  0  0  0
 30  1  1  0  0  0  0
 30 28  1  0  0  0  0
 27 28  1  0  0  0  0
 27 26  1  0  0  0  0
  1 31  1  0  0  0  0
 28 29  1  0  0  0  0
 26 25  1  0  0  0  0
 31 32  1  0  0  0  0
 25 24  2  0  0  0  0
 25 22  1  0  0  0  0
 18 10  3  0  0  0  0
 24  4  1  0  0  0  0
 21 22  1  0  0  0  0
 21  7  2  0  0  0  0
 10  9  1  0  0  0  0
 22  6  1  0  0  0  0
 12 13  2  0  0  0  0
 12 11  1  0  0  0  0
  8  9  1  0  0  0  0
  8 11  1  0  0  0  0
  8 19  1  0  0  0  0
 13 14  1  0  0  0  0
  7 19  1  0  0  0  0
  7 20  1  0  0  0  0
  4  5  1  0  0  0  0
  4 23  2  0  0  0  0
 11 16  2  0  0  0  0
  6 23  1  0  0  0  0
  6 20  2  0  0  0  0
 14 15  2  0  0  0  0
 16 15  1  0  0  0  0
 15 17  1  0  0  0  0
M  END
>  <InstanceId>
6CKW_F6D_A_201

>  <ChemCompId>
F6D

>  <PdbId>
6CKW

>  <ChainId>
A

>  <ResidueNumber>
201

>  <InsertionCode>


>  <Model>
1

>  <AltIds>


>  <MissingHeavyAtoms>
0

>  <ObservedFormula>
C24 N8 O Cl

>  <Name>
(3R)-3-[(7-{[(2S)-2-amino-2-(2-methoxyphenyl)ethyl]amino}-5-methyl[1,2,4]triazolo[1,5-a]pyrimidin-2-yl)amino]-3-(3-chlorophenyl)propanenitrile

>  <SystematicName>
(3~{R})-3-[[7-[[(2~{S})-2-azanyl-2-(2-methoxyphenyl)ethyl]amino]-5-methyl-[1,2,4]triazolo[1,5-a]pyrimidin-2-yl]amino]-3-(3-chlorophenyl)propanenitrile

>  <Synonyms>


>  <Type>
NON-POLYMER

>  <Formula>
C24 H25 Cl N8 O

>  <MolecularWeight>
476.961

>  <ModifiedDate>
2018-03-29

>  <Parent>


>  <OneLetterCode>


>  <SubcomponentList>


>  <AmbiguousFlag>
N

>  <InChI>
InChI=1S/C24H25ClN8O/c1-15-12-22(28-14-19(27)18-8-3-4-9-21(18)34-2)33-24(29-15)31-23(32-33)30-20(10-11-26)16-6-5-7-17(25)13-16/h3-9,12-13,19-20,28H,10,14,27H2,1-2H3,(H,30,32)/t19-,20-/m1/s1

>  <InChIKey>
TVYFBBBTUXLKKX-WOJBJXKFSA-N

>  <SMILES>
Cc1cc(n2c(n1)nc(n2)N[C@H](CC#N)c3cccc(c3)Cl)NC[C@H](c4ccccc4OC)N

$$$$
