6BBX_D77_A_201
  RCSB PDB08022004023D
Coordinates from PDB:6BBX:A:201 Model:1 without hydrogens
 41 46  0  0  0  0            999 V2000
   -5.3930   -9.3350    5.7450   C 0  0  0  0  0  0  0  0  0  0  0  0
   -6.5750   -8.5130    5.5630   O 0  0  0  0  0  0  0  0  0  0  0  0
   -7.0890   -7.9760    6.7320   C 0  0  0  0  0  0  0  0  0  0  0  0
   -6.3580   -7.7480    7.7050   O 0  0  0  0  0  0  0  0  0  0  0  0
   -8.6680   -7.6930    6.8480   C 0  0  0  0  0  0  0  0  0  0  0  0
   -9.4570   -8.8610    6.6500   O 0  0  0  0  0  0  0  0  0  0  0  0
   -9.3130   -6.4990    5.9830   C 0  0  0  0  0  0  0  0  0  0  0  0
   -8.2850   -5.8240    5.2770   C 0  0  0  0  0  0  0  0  0  0  0  0
  -10.2640   -7.0540    4.8930   O 0  0  0  0  0  0  0  0  0  0  0  0
  -10.0450   -5.5480    6.9650   C 0  0  0  0  0  0  0  0  0  0  0  0
  -10.5160   -6.0350    8.1480   O 0  0  0  0  0  0  0  0  0  0  0  0
   -9.6580   -4.9640    8.3440   C 0  0  0  0  0  0  0  0  0  0  0  0
  -10.2680   -3.7610    8.8260   C 0  0  0  0  0  0  0  0  0  0  0  0
   -9.7020   -3.1180    9.9350   C 0  0  0  0  0  0  0  0  0  0  0  0
  -10.1880   -1.9360   10.4560   C 0  0  0  0  0  0  0  0  0  0  0  0
   -9.5850   -1.3880   11.5460   O 0  0  0  0  0  0  0  0  0  0  0  0
  -11.3020   -1.3020    9.8760   C 0  0  0  0  0  0  0  0  0  0  0  0
  -11.7880   -0.0800   10.4020   C 0  0  0  0  0  0  0  0  0  0  0  0
  -11.2680    0.4520   11.3900   O 0  0  0  0  0  0  0  0  0  0  0  0
  -12.8830    0.5340    9.7900   C 0  0  0  0  0  0  0  0  0  0  0  0
  -13.3720    1.7480   10.3010   C 0  0  0  0  0  0  0  0  0  0  0  0
  -14.4690    2.3740    9.7140   C 0  0  0  0  0  0  0  0  0  0  0  0
  -15.0720    1.7950    8.6010   C 0  0  0  0  0  0  0  0  0  0  0  0
  -16.1350    2.3720    7.9940   O 0  0  0  0  0  0  0  0  0  0  0  0
  -14.5900    0.5870    8.0860   C 0  0  0  0  0  0  0  0  0  0  0  0
  -15.2030    0.0260    6.9980   O 0  0  0  0  0  0  0  0  0  0  0  0
  -13.4950   -0.0670    8.6700   C 0  0  0  0  0  0  0  0  0  0  0  0
  -13.0220   -1.2840    8.1430   C 0  0  0  0  0  0  0  0  0  0  0  0
  -13.6000   -1.7800    7.1690   O 0  0  0  0  0  0  0  0  0  0  0  0
  -11.9090   -1.9240    8.7340   C 0  0  0  0  0  0  0  0  0  0  0  0
  -11.3920   -3.1580    8.2150   C 0  0  0  0  0  0  0  0  0  0  0  0
  -11.9530   -3.8120    7.0690   N 0  0  0  0  0  0  0  0  0  0  0  0
  -11.0690   -4.5390    6.1180   C 0  0  0  0  0  0  0  0  0  0  0  0
  -10.2000   -3.5540    5.5270   C 0  0  0  0  0  0  0  0  0  0  0  0
   -9.3690   -2.7090    5.0740   C 0  0  0  0  0  0  0  0  0  0  0  0
   -8.2850   -1.6960    4.6300   C 0  0  0  0  0  0  0  0  0  0  0  0
   -7.1260   -1.8100    5.4630   C 0  0  0  0  0  0  0  0  0  0  0  0
   -7.3280   -2.8820    6.5280   C 0  0  0  0  0  0  0  0  0  0  0  0
   -7.6450   -3.8040    7.3520   C 0  0  0  0  0  0  0  0  0  0  0  0
   -8.0940   -4.9230    8.2570   C 0  0  0  0  0  0  0  0  0  0  0  0
   -7.2640   -4.7350    9.5270   O 0  0  0  0  0  0  0  0  0  0  0  0
 36 35  1  0  0  0  0
 36 37  2  0  0  0  0
  9  7  1  0  0  0  0
 35 34  3  0  0  0  0
  8  7  1  0  0  0  0
 37 38  1  0  0  0  0
 34 33  1  0  0  0  0
  2  1  1  0  0  0  0
  2  3  1  0  0  0  0
  7  5  1  0  0  0  0
  7 10  1  0  0  0  0
 33 10  1  0  0  0  0
 33 32  1  0  0  0  0
 38 39  3  0  0  0  0
  6  5  1  0  0  0  0
  3  5  1  0  0  0  0
  3  4  2  0  0  0  0
 10 11  1  0  0  0  0
 10 12  1  0  0  0  0
 26 25  1  0  0  0  0
 32 31  1  0  0  0  0
 29 28  2  0  0  0  0
 39 40  1  0  0  0  0
 24 23  1  0  0  0  0
 25 23  2  0  0  0  0
 25 27  1  0  0  0  0
 28 27  1  0  0  0  0
 28 30  1  0  0  0  0
 11 12  1  0  0  0  0
 31 30  2  0  0  0  0
 31 13  1  0  0  0  0
 40 12  1  0  0  0  0
 40 41  1  0  0  0  0
 12 13  1  0  0  0  0
 23 22  1  0  0  0  0
 27 20  2  0  0  0  0
 30 17  1  0  0  0  0
 13 14  2  0  0  0  0
 22 21  2  0  0  0  0
 20 21  1  0  0  0  0
 20 18  1  0  0  0  0
 17 18  1  0  0  0  0
 17 15  2  0  0  0  0
 14 15  1  0  0  0  0
 18 19  2  0  0  0  0
 15 16  1  0  0  0  0
M  END
>  <InstanceId>
6BBX_D77_A_201

>  <ChemCompId>
D77

>  <PdbId>
6BBX

>  <ChainId>
A

>  <ResidueNumber>
201

>  <InsertionCode>


>  <Model>
1

>  <AltIds>


>  <MissingHeavyAtoms>
0

>  <ObservedFormula>
C29 N O11

>  <Name>
methyl (2R,3R)-2,3-dihydroxy-3-[(1aS,11S,11aR,14Z,18R)-3,7,8,18-tetrahydroxy-4,9-dioxo-4,9,10,11-tetrahydro-11aH-11,1a-hept[3]ene[1,5]diynonaphtho[2,3-h]oxireno[c]quinolin-11a-yl]butanoate

>  <SystematicName>


>  <Synonyms>


>  <Type>
NON-POLYMER

>  <Formula>
C29 H21 N O11

>  <MolecularWeight>
559.477

>  <ModifiedDate>
2018-06-29

>  <Parent>


>  <OneLetterCode>


>  <SubcomponentList>


>  <AmbiguousFlag>
N

>  <InChI>
InChI=1S/C29H21NO11/c1-27(39,25(37)26(38)40-2)29-16-7-5-3-4-6-8-17(33)28(29,41-29)13-11-15(32)19-20(21(13)30-16)24(36)18-12(22(19)34)9-10-14(31)23(18)35/h3-4,9-11,16-17,25,30-33,35,37,39H,1-2H3/b4-3-/t16-,17+,25-,27+,28-,29+/m0/s1

>  <InChIKey>
KPDKPRCLDGTNFK-UUNAQHPASA-N

>  <SMILES>
C[C@@]([C@H](C(=O)OC)O)([C@]12[C@@H]3C#C/C=C\C#C[C@H]([C@@]1(O2)c4cc(c5c(c4N3)C(=O)c6c(ccc(c6O)O)C5=O)O)O)O

$$$$
