5GOF_GTP_A_901
  RCSB PDB08022001313D
Coordinates from PDB:5GOF:A:901 Model:1 without hydrogens
 32 34  0  0  0  0            999 V2000
    7.1360  -11.3340   27.5650   P 0  0  0  0  0  0  0  0  0  0  0  0
    6.5150  -10.3300   26.6120   O 0  0  0  0  0  0  0  0  0  0  0  0
    8.1930  -12.1360   26.8520   O 0  0  0  0  0  0  0  0  0  0  0  0
    6.0720  -12.2570   28.1190   O 0  0  0  0  0  0  0  0  0  0  0  0
    7.8340  -10.6210   28.8300   O 0  0  0  0  0  0  0  0  0  0  0  0
    8.4730   -9.1400   28.8450   P 0  0  0  0  0  0  0  0  0  0  0  0
    7.6090   -8.1360   28.1190   O 0  0  0  0  0  0  0  0  0  0  0  0
    9.8800   -9.2240   28.3080   O 0  0  0  0  0  0  0  0  0  0  0  0
    8.4510   -8.8370   30.4150   O 0  0  0  0  0  0  0  0  0  0  0  0
    7.2510   -8.1910   31.2570   P 0  0  0  0  0  0  0  0  0  0  0  0
    5.8730   -8.6380   30.8210   O 0  0  0  0  0  0  0  0  0  0  0  0
    7.4040   -6.6930   31.2570   O 0  0  0  0  0  0  0  0  0  0  0  0
    7.5260   -8.7320   32.7450   O 0  0  0  0  0  0  0  0  0  0  0  0
    7.7430  -10.1030   33.0100   C 0  0  0  0  0  0  0  0  0  0  0  0
    7.5640  -10.3110   34.5040   C 0  0  0  0  0  0  0  0  0  0  0  0
    8.7130   -9.7670   35.1230   O 0  0  0  0  0  0  0  0  0  0  0  0
    6.3660   -9.5390   35.0250   C 0  0  0  0  0  0  0  0  0  0  0  0
    5.7770  -10.2680   36.0770   O 0  0  0  0  0  0  0  0  0  0  0  0
    6.9430   -8.2860   35.6280   C 0  0  0  0  0  0  0  0  0  0  0  0
    6.1940   -7.8760   36.7440   O 0  0  0  0  0  0  0  0  0  0  0  0
    8.3450   -8.7330   36.0050   C 0  0  0  0  0  0  0  0  0  0  0  0
    9.2720   -7.5990   35.8820   N 0  0  0  0  0  0  0  0  0  0  0  0
    9.4600   -6.7440   34.8170   C 0  0  0  0  0  0  0  0  0  0  0  0
   10.4150   -5.8410   35.1730   N 0  0  0  0  0  0  0  0  0  0  0  0
   10.8380   -6.1300   36.4420   C 0  0  0  0  0  0  0  0  0  0  0  0
   11.7640   -5.5600   37.3050   C 0  0  0  0  0  0  0  0  0  0  0  0
   12.4590   -4.5800   37.0310   O 0  0  0  0  0  0  0  0  0  0  0  0
   11.9480   -6.1090   38.5430   N 0  0  0  0  0  0  0  0  0  0  0  0
   11.2240   -7.1970   38.9520   C 0  0  0  0  0  0  0  0  0  0  0  0
   11.4500   -7.6730   40.1800   N 0  0  0  0  0  0  0  0  0  0  0  0
   10.2980   -7.7630   38.1130   N 0  0  0  0  0  0  0  0  0  0  0  0
   10.1100   -7.2280   36.8770   C 0  0  0  0  0  0  0  0  0  0  0  0
  1  2  2  0  0  0  0
  1  3  1  0  0  0  0
  1  4  1  0  0  0  0
  1  5  1  0  0  0  0
  5  6  1  0  0  0  0
  6  7  2  0  0  0  0
  6  8  1  0  0  0  0
  6  9  1  0  0  0  0
  9 10  1  0  0  0  0
 10 11  2  0  0  0  0
 10 12  1  0  0  0  0
 10 13  1  0  0  0  0
 13 14  1  0  0  0  0
 14 15  1  0  0  0  0
 15 16  1  0  0  0  0
 15 17  1  0  0  0  0
 16 21  1  0  0  0  0
 17 18  1  0  0  0  0
 17 19  1  0  0  0  0
 19 20  1  0  0  0  0
 19 21  1  0  0  0  0
 21 22  1  0  0  0  0
 22 23  1  0  0  0  0
 22 32  1  0  0  0  0
 23 24  2  0  0  0  0
 24 25  1  0  0  0  0
 25 26  1  0  0  0  0
 25 32  2  0  0  0  0
 26 27  2  0  0  0  0
 26 28  1  0  0  0  0
 28 29  1  0  0  0  0
 29 30  1  0  0  0  0
 29 31  2  0  0  0  0
 31 32  1  0  0  0  0
M  END
>  <InstanceId>
5GOF_GTP_A_901

>  <ChemCompId>
GTP

>  <PdbId>
5GOF

>  <ChainId>
A

>  <ResidueNumber>
901

>  <InsertionCode>


>  <Model>
1

>  <AltIds>


>  <MissingHeavyAtoms>
0

>  <ObservedFormula>
C10 N5 O14 P3

>  <Name>
GUANOSINE-5'-TRIPHOSPHATE

>  <SystematicName>
[[(2R,3S,4R,5R)-5-(2-azanyl-6-oxidanylidene-1H-purin-9-yl)-3,4-bis(oxidanyl)oxolan-2-yl]methoxy-oxidanyl-phosphoryl] phosphono hydrogen phosphate

>  <Synonyms>


>  <Type>
NON-POLYMER

>  <Formula>
C10 H16 N5 O14 P3

>  <MolecularWeight>
523.18

>  <ModifiedDate>
2013-03-22

>  <Parent>
G

>  <OneLetterCode>
G

>  <SubcomponentList>


>  <AmbiguousFlag>
N

>  <InChI>
InChI=1S/C10H16N5O14P3/c11-10-13-7-4(8(18)14-10)12-2-15(7)9-6(17)5(16)3(27-9)1-26-31(22,23)29-32(24,25)28-30(19,20)21/h2-3,5-6,9,16-17H,1H2,(H,22,23)(H,24,25)(H2,19,20,21)(H3,11,13,14,18)/t3-,5-,6-,9-/m1/s1

>  <InChIKey>
XKMLYUALXHKNFT-UUOKFMHZSA-N

>  <SMILES>
c1nc2c(n1[C@H]3[C@@H]([C@@H]([C@H](O3)CO[P@](=O)(O)O[P@](=O)(O)OP(=O)(O)O)O)O)N=C(NC2=O)N

$$$$
