2RKG_AB1_B_501
  RCSB PDB08012017553D
Coordinates from PDB:2RKG:B:501 Model:1 without hydrogens
 46 49  0  0  0  0            999 V2000
  -12.5830   12.3050    6.9680   C 0  0  0  0  0  0  0  0  0  0  0  0
  -10.4740   13.0480    5.7760   C 0  0  0  0  0  0  0  0  0  0  0  0
  -11.2370   14.2330    5.3870   N 0  0  0  0  0  0  0  0  0  0  0  0
  -12.5030   14.4660    5.7490   C 0  0  0  0  0  0  0  0  0  0  0  0
  -13.1700   13.4740    6.3330   N 0  0  0  0  0  0  0  0  0  0  0  0
   -6.4060   17.5750   -0.2120   C 0  0  0  0  0  0  0  0  0  0  0  0
   -5.7590   18.6000   -0.9040   C 0  0  0  0  0  0  0  0  0  0  0  0
   -4.4720   18.4050   -1.4090   C 0  0  0  0  0  0  0  0  0  0  0  0
   -3.8230   17.1840   -1.2160   C 0  0  0  0  0  0  0  0  0  0  0  0
   -4.4690   16.1610   -0.5140   C 0  0  0  0  0  0  0  0  0  0  0  0
   -5.7590   16.3530   -0.0170   C 0  0  0  0  0  0  0  0  0  0  0  0
  -13.0410   15.5350    5.5690   O 0  0  0  0  0  0  0  0  0  0  0  0
  -10.4930   15.1880    4.5370   C 0  0  0  0  0  0  0  0  0  0  0  0
  -10.3650   14.6780    3.1150   C 0  0  0  0  0  0  0  0  0  0  0  0
  -11.2610   15.2040    2.2700   N 0  0  0  0  0  0  0  0  0  0  0  0
  -11.3180   14.8460    0.8530   C 0  0  0  0  0  0  0  0  0  0  0  0
   -9.1480   15.5640    5.1980   C 0  0  0  0  0  0  0  0  0  0  0  0
   -8.3050   16.4700    4.3100   C 0  0  0  0  0  0  0  0  0  0  0  0
   -9.3270   16.2580    6.5470   C 0  0  0  0  0  0  0  0  0  0  0  0
   -9.5120   13.8520    2.7810   O 0  0  0  0  0  0  0  0  0  0  0  0
  -12.4550   10.6580    1.9210   C 0  0  0  0  0  0  0  0  0  0  0  0
  -13.4870   10.6420    2.8580   C 0  0  0  0  0  0  0  0  0  0  0  0
  -14.2560   11.7860    3.0630   C 0  0  0  0  0  0  0  0  0  0  0  0
  -13.9910   12.9400    2.3270   C 0  0  0  0  0  0  0  0  0  0  0  0
  -12.9520   12.9620    1.3980   C 0  0  0  0  0  0  0  0  0  0  0  0
  -12.1910   11.8140    1.1890   C 0  0  0  0  0  0  0  0  0  0  0  0
  -12.6950   14.2280    0.6130   C 0  0  0  0  0  0  0  0  0  0  0  0
  -11.3160   16.1540    0.0660   C 0  0  0  0  0  0  0  0  0  0  0  0
  -10.2000   17.1290    0.4250   C 0  0  0  0  0  0  0  0  0  0  0  0
   -8.7910   16.6940    0.0160   C 0  0  0  0  0  0  0  0  0  0  0  0
   -8.7390   16.5540   -1.4340   N 0  0  0  0  0  0  0  0  0  0  0  0
   -8.5640   15.3460   -1.9710   C 0  0  0  0  0  0  0  0  0  0  0  0
   -8.4930   15.2230   -3.4750   C 0  0  0  0  0  0  0  0  0  0  0  0
   -8.6070   16.4800   -4.1480   O 0  0  0  0  0  0  0  0  0  0  0  0
   -8.0950   16.6300   -5.4150   C 0  0  0  0  0  0  0  0  0  0  0  0
  -10.4980   18.3790   -0.1920   O 0  0  0  0  0  0  0  0  0  0  0  0
   -7.8040   17.8190    0.3280   C 0  0  0  0  0  0  0  0  0  0  0  0
   -8.4640   14.3320   -1.2980   O 0  0  0  0  0  0  0  0  0  0  0  0
   -8.7070   16.0230   -6.5230   C 0  0  0  0  0  0  0  0  0  0  0  0
   -8.1660   16.1920   -7.7940   C 0  0  0  0  0  0  0  0  0  0  0  0
   -7.0230   16.9640   -7.9790   C 0  0  0  0  0  0  0  0  0  0  0  0
   -6.4120   17.5670   -6.8840   C 0  0  0  0  0  0  0  0  0  0  0  0
   -6.9410   17.4030   -5.6060   C 0  0  0  0  0  0  0  0  0  0  0  0
   -6.2400   18.0820   -4.4580   C 0  0  0  0  0  0  0  0  0  0  0  0
   -9.9530   15.1820   -6.4010   C 0  0  0  0  0  0  0  0  0  0  0  0
  -11.4580   11.9060    6.0230   C 0  0  0  0  0  0  0  0  0  0  0  0
  1  5  1  0  0  0  0
  1 46  1  0  0  0  0
  2  3  1  0  0  0  0
  2 46  1  0  0  0  0
  3  4  1  0  0  0  0
  3 13  1  0  0  0  0
  4  5  1  0  0  0  0
  4 12  2  0  0  0  0
  6  7  2  0  0  0  0
  6 11  1  0  0  0  0
  6 37  1  0  0  0  0
  7  8  1  0  0  0  0
  8  9  2  0  0  0  0
  9 10  1  0  0  0  0
 10 11  2  0  0  0  0
 13 14  1  0  0  0  0
 13 17  1  0  0  0  0
 14 15  1  0  0  0  0
 14 20  2  0  0  0  0
 15 16  1  0  0  0  0
 16 27  1  0  0  0  0
 16 28  1  0  0  0  0
 17 18  1  0  0  0  0
 17 19  1  0  0  0  0
 21 22  2  0  0  0  0
 21 26  1  0  0  0  0
 22 23  1  0  0  0  0
 23 24  2  0  0  0  0
 24 25  1  0  0  0  0
 25 26  2  0  0  0  0
 25 27  1  0  0  0  0
 28 29  1  0  0  0  0
 29 30  1  0  0  0  0
 29 36  1  0  0  0  0
 30 31  1  0  0  0  0
 30 37  1  0  0  0  0
 31 32  1  0  0  0  0
 32 33  1  0  0  0  0
 32 38  2  0  0  0  0
 33 34  1  0  0  0  0
 34 35  1  0  0  0  0
 35 39  2  0  0  0  0
 35 43  1  0  0  0  0
 39 40  1  0  0  0  0
 39 45  1  0  0  0  0
 40 41  2  0  0  0  0
 41 42  1  0  0  0  0
 42 43  2  0  0  0  0
 43 44  1  0  0  0  0
M  END
>  <InstanceId>
2RKG_AB1_B_501

>  <ChemCompId>
AB1

>  <PdbId>
2RKG

>  <ChainId>
B

>  <ResidueNumber>
501

>  <InsertionCode>


>  <Model>
1

>  <AltIds>


>  <MissingHeavyAtoms>
0

>  <ObservedFormula>
C37 N4 O5

>  <Name>
N-{1-BENZYL-4-[2-(2,6-DIMETHYL-PHENOXY)-ACETYLAMINO]-3-HYDROXY-5-PHENYL-PENTYL}-3-METHYL-2-(2-OXO-TETRAHYDRO-PYRIMIDIN-1-YL)-BUTYRAMIDE

>  <SystematicName>
(2S)-N-[(2S,4S,5S)-5-[2-(2,6-dimethylphenoxy)ethanoylamino]-4-hydroxy-1,6-diphenyl-hexan-2-yl]-3-methyl-2-(2-oxo-1,3-diazinan-1-yl)butanamide

>  <Synonyms>
ABT-378; LOPINAVIR

>  <Type>
NON-POLYMER

>  <Formula>
C37 H48 N4 O5

>  <MolecularWeight>
628.801

>  <ModifiedDate>
2020-05-26

>  <Parent>


>  <OneLetterCode>


>  <SubcomponentList>


>  <AmbiguousFlag>
N

>  <InChI>
InChI=1S/C37H48N4O5/c1-25(2)34(41-20-12-19-38-37(41)45)36(44)39-30(21-28-15-7-5-8-16-28)23-32(42)31(22-29-17-9-6-10-18-29)40-33(43)24-46-35-26(3)13-11-14-27(35)4/h5-11,13-18,25,30-32,34,42H,12,19-24H2,1-4H3,(H,38,45)(H,39,44)(H,40,43)/t30-,31-,32-,34-/m0/s1

>  <InChIKey>
KJHKTHWMRKYKJE-SUGCFTRWSA-N

>  <SMILES>
Cc1cccc(c1OCC(=O)N[C@@H](Cc2ccccc2)[C@H](C[C@H](Cc3ccccc3)NC(=O)[C@H](C(C)C)N4CCCNC4=O)O)C

$$$$
