6G2L_EJ8_A_303
  RCSB PDB08022004453D
Coordinates from PDB:6G2L:A:303 Model:1 without hydrogens
 34 37  0  0  0  0            999 V2000
   -5.1360   27.2930   28.2640   C 0  0  0  0  0  0  0  0  0  0  0  0
   -3.6410   27.6900   28.0440   C 0  0  0  0  0  0  0  0  0  0  0  0
   -1.3600   28.3620   26.7050   O 0  0  0  0  0  0  0  0  0  0  0  0
   -5.4390   20.1380   22.7400   O 0  0  0  0  0  0  0  0  0  0  0  0
   -4.1180   20.0290   23.3490   P 0  0  0  0  0  0  0  0  0  0  0  0
   -2.9660   20.6410   22.6820   O 0  0  0  0  0  0  0  0  0  0  0  0
   -3.9100   18.7690   24.1400   O 0  0  0  0  0  0  0  0  0  0  0  0
   -4.3450   21.1390   24.8070   C 0  0  0  0  0  0  0  0  0  0  0  0
   -3.0270   22.3790   25.1870   S 0  0  0  0  0  0  0  0  0  0  0  0
   -3.9340   23.8990   24.7180   C 0  0  0  0  0  0  0  0  0  0  0  0
   -3.2690   25.0320   25.2220   C 0  0  0  0  0  0  0  0  0  0  0  0
   -3.7550   25.7210   26.3130   C 0  0  0  0  0  0  0  0  0  0  0  0
   -2.1420   25.5280   24.6150   C 0  0  0  0  0  0  0  0  0  0  0  0
   -1.6700   24.9930   23.6170   O 0  0  0  0  0  0  0  0  0  0  0  0
   -1.5330   26.6630   25.1340   N 0  0  0  0  0  0  0  0  0  0  0  0
   -1.9780   27.3550   26.2750   C 0  0  0  0  0  0  0  0  0  0  0  0
   -3.0900   26.9090   26.8590   N 0  0  0  0  0  0  0  0  0  0  0  0
   -2.9770   27.5630   29.2690   O 0  0  0  0  0  0  0  0  0  0  0  0
   -5.1670   26.8000   29.6950   C 0  0  0  0  0  0  0  0  0  0  0  0
   -4.9560   25.3830   29.6280   O 0  0  0  0  0  0  0  0  0  0  0  0
   -3.9720   27.5180   30.3140   C 0  0  0  0  0  0  0  0  0  0  0  0
   -3.3410   26.8200   31.4550   C 0  0  0  0  0  0  0  0  0  0  0  0
   -3.2700   25.3400   31.2290   O 0  0  0  0  0  0  0  0  0  0  0  0
   -4.4850   24.7240   30.8270   C 0  0  0  0  0  0  0  0  0  0  0  0
   -5.7450   24.7590   32.2110   P 0  0  0  0  0  0  0  0  0  0  0  0
   -6.2020   26.1470   32.5300   O 0  0  0  0  0  0  0  0  0  0  0  0
   -6.8310   23.8520   31.8420   O 0  0  0  0  0  0  0  0  0  0  0  0
   -4.9150   24.1070   33.3560   O 0  0  0  0  0  0  0  0  0  0  0  0
   -4.2290   23.3530   30.4330   C 0  0  0  0  0  0  0  0  0  0  0  0
   -4.9400   22.7530   29.3880   C 0  0  0  0  0  0  0  0  0  0  0  0
   -4.7220   21.4260   29.0470   C 0  0  0  0  0  0  0  0  0  0  0  0
   -3.7810   20.6990   29.7160   C 0  0  0  0  0  0  0  0  0  0  0  0
   -3.0180   21.2660   30.7330   C 0  0  0  0  0  0  0  0  0  0  0  0
   -3.2730   22.5950   31.0850   C 0  0  0  0  0  0  0  0  0  0  0  0
  6  5  2  0  0  0  0
  4  5  1  0  0  0  0
  5  7  1  0  0  0  0
  5  8  1  0  0  0  0
 14 13  2  0  0  0  0
 13 15  1  0  0  0  0
 13 11  1  0  0  0  0
 10  9  1  0  0  0  0
 10 11  1  0  0  0  0
  8  9  1  0  0  0  0
 15 16  1  0  0  0  0
 11 12  2  0  0  0  0
 16  3  2  0  0  0  0
 16 17  1  0  0  0  0
 12 17  1  0  0  0  0
 17  2  1  0  0  0  0
  2  1  1  0  0  0  0
  2 18  1  0  0  0  0
  1 19  1  0  0  0  0
 31 30  2  0  0  0  0
 31 32  1  0  0  0  0
 18 21  1  0  0  0  0
 30 29  1  0  0  0  0
 20 19  1  0  0  0  0
 20 24  1  0  0  0  0
 19 21  1  0  0  0  0
 32 33  2  0  0  0  0
 21 22  1  0  0  0  0
 29 24  1  0  0  0  0
 29 34  2  0  0  0  0
 33 34  1  0  0  0  0
 24 23  1  0  0  0  0
 24 25  1  0  0  0  0
 23 22  1  0  0  0  0
 27 25  2  0  0  0  0
 25 26  1  0  0  0  0
 25 28  1  0  0  0  0
M  END
>  <InstanceId>
6G2L_EJ8_A_303

>  <ChemCompId>
EJ8

>  <PdbId>
6G2L

>  <ChainId>
A

>  <ResidueNumber>
303

>  <InsertionCode>


>  <Model>
1

>  <AltIds>


>  <MissingHeavyAtoms>
0

>  <ObservedFormula>
C18 N2 O11 P2 S

>  <Name>
[(2~{R},4~{a}~{R},6~{R},7~{a}~{R})-6-[2,4-bis(oxidanylidene)-5-(phosphonomethylsulfanylmethyl)pyrimidin-1-yl]-2-phenyl-4~{a},6,7,7~{a}-tetrahydro-4~{H}-furo[3,2-d][1,3]dioxin-2-yl]phosphonic acid

>  <SystematicName>
[(2~{R},4~{a}~{R},6~{R},7~{a}~{R})-6-[2,4-bis(oxidanylidene)-5-(phosphonomethylsulfanylmethyl)pyrimidin-1-yl]-2-phenyl-4~{a},6,7,7~{a}-tetrahydro-4~{H}-furo[3,2-d][1,3]dioxin-2-yl]phosphonic acid

>  <Synonyms>


>  <Type>
NON-POLYMER

>  <Formula>
C18 H22 N2 O11 P2 S

>  <MolecularWeight>
536.387

>  <ModifiedDate>
2018-07-06

>  <Parent>


>  <OneLetterCode>


>  <SubcomponentList>


>  <AmbiguousFlag>
N

>  <InChI>
InChI=1S/C18H22N2O11P2S/c21-16-11(9-34-10-32(23,24)25)7-20(17(22)19-16)15-6-13-14(30-15)8-29-18(31-13,33(26,27)28)12-4-2-1-3-5-12/h1-5,7,13-15H,6,8-10H2,(H,19,21,22)(H2,23,24,25)(H2,26,27,28)/t13-,14-,15-,18-/m1/s1

>  <InChIKey>
KFRRWRABRKBEOD-ATNYBXOESA-N

>  <SMILES>
c1ccc(cc1)[C@]2(OC[C@@H]3[C@H](O2)C[C@@H](O3)N4C=C(C(=O)NC4=O)CSCP(=O)(O)O)P(=O)(O)O

$$$$
