2OAX_SNL_A_1001
  RCSB PDB08012017373D
Coordinates from PDB:2OAX:A:1001 Model:1 without hydrogens
 29 33  0  0  0  0            999 V2000
  -22.9650   57.7830    2.8810   C 0  0  0  0  0  0  0  0  0  0  0  0
  -21.4410   61.4310    3.2340   C 0  0  0  0  0  0  0  0  0  0  0  0
  -21.6420   59.8600    2.6070   C 0  0  0  0  0  0  0  0  0  0  0  0
  -17.6790   61.0790    4.5750   C 0  0  0  0  0  0  0  0  0  0  0  0
  -20.9950   58.8580    3.7220   C 0  0  0  0  0  0  0  0  0  0  0  0
  -17.4540   62.6040    5.2360   C 0  0  0  0  0  0  0  0  0  0  0  0
  -19.9980   61.7840    3.4890   C 0  0  0  0  0  0  0  0  0  0  0  0
  -21.6150   57.4500    3.4530   C 0  0  0  0  0  0  0  0  0  0  0  0
  -23.0980   59.2720    2.6430   C 0  0  0  0  0  0  0  0  0  0  0  0
  -20.9800   59.7650    1.1200   C 0  0  0  0  0  0  0  0  0  0  0  0
  -16.9460   61.0680    3.1490   C 0  0  0  0  0  0  0  0  0  0  0  0
  -16.0080   62.8740    5.8000   C 0  0  0  0  0  0  0  0  0  0  0  0
  -24.1290   59.8570    3.6860   C 0  0  0  0  0  0  0  0  0  0  0  0
  -25.1470   60.7050    2.8760   C 0  0  0  0  0  0  0  0  0  0  0  0
  -24.7400   60.4840    1.4500   C 0  0  0  0  0  0  0  0  0  0  0  0
  -19.2940   56.7540    7.6120   C 0  0  0  0  0  0  0  0  0  0  0  0
  -20.0030   56.3580    8.8990   C 0  0  0  0  0  0  0  0  0  0  0  0
  -15.4820   61.6250    6.6540   C 0  0  0  0  0  0  0  0  0  0  0  0
  -15.9490   60.2380    6.4010   C 0  0  0  0  0  0  0  0  0  0  0  0
  -16.8790   59.9450    5.4040   C 0  0  0  0  0  0  0  0  0  0  0  0
  -17.2780   58.4070    5.1350   C 0  0  0  0  0  0  0  0  0  0  0  0
  -18.8120   58.1540    4.9830   C 0  0  0  0  0  0  0  0  0  0  0  0
  -19.4910   59.0960    3.9690   C 0  0  0  0  0  0  0  0  0  0  0  0
  -19.2250   60.7120    4.4060   C 0  0  0  0  0  0  0  0  0  0  0  0
  -25.1350   61.1620    0.4900   O 0  0  0  0  0  0  0  0  0  0  0  0
  -23.8210   59.4220    1.3580   O 0  0  0  0  0  0  0  0  0  0  0  0
  -18.3930   56.0320    7.2050   O 0  0  0  0  0  0  0  0  0  0  0  0
  -14.7040   61.8230    7.5500   O 0  0  0  0  0  0  0  0  0  0  0  0
  -19.7160   58.3000    6.7080   S 0  0  0  0  0  0  0  0  0  0  0  0
  1  8  1  0  0  0  0
  1  9  1  0  0  0  0
  2  3  1  0  0  0  0
  2  7  1  0  0  0  0
  3  5  1  0  0  0  0
  3  9  1  0  0  0  0
  3 10  1  0  0  0  0
  4  6  1  0  0  0  0
  4 11  1  0  0  0  0
  4 20  1  0  0  0  0
  4 24  1  0  0  0  0
  5  8  1  0  0  0  0
  5 23  1  0  0  0  0
  6 12  1  0  0  0  0
  7 24  1  0  0  0  0
  9 13  1  0  0  0  0
  9 26  1  0  0  0  0
 12 18  1  0  0  0  0
 13 14  1  0  0  0  0
 14 15  1  0  0  0  0
 15 25  2  0  0  0  0
 15 26  1  0  0  0  0
 16 17  1  0  0  0  0
 16 27  2  0  0  0  0
 16 29  1  0  0  0  0
 18 19  1  0  0  0  0
 18 28  2  0  0  0  0
 19 20  2  0  0  0  0
 20 21  1  0  0  0  0
 21 22  1  0  0  0  0
 22 23  1  0  0  0  0
 22 29  1  0  0  0  0
 23 24  1  0  0  0  0
M  END
>  <InstanceId>
2OAX_SNL_A_1001

>  <ChemCompId>
SNL

>  <PdbId>
2OAX

>  <ChainId>
A

>  <ResidueNumber>
1001

>  <InsertionCode>


>  <Model>
1

>  <AltIds>


>  <MissingHeavyAtoms>
0

>  <ObservedFormula>
C24 O4 S

>  <Name>
SPIRONOLACTONE

>  <SystematicName>
S-[(7R,8R,9S,10R,13S,14S,17R)-10,13-dimethyl-3,5'-dioxo-spiro[2,6,7,8,9,11,12,14,15,16-decahydro-1H-cyclopenta[a]phenanthrene-17,2'-oxolane]-7-yl] ethanethioate

>  <Synonyms>
17-HYDROXY-7ALPHA-MERCAPTO-3-OXO-17ALPHA-PREGN-4-ENE-21- CARBOXYLIC ACID; GAMMA-LACTONE ACETATE

>  <Type>
NON-POLYMER

>  <Formula>
C24 H32 O4 S

>  <MolecularWeight>
416.573

>  <ModifiedDate>
2020-05-27

>  <Parent>


>  <OneLetterCode>


>  <SubcomponentList>


>  <AmbiguousFlag>
N

>  <InChI>
InChI=1S/C24H32O4S/c1-14(25)29-19-13-15-12-16(26)4-8-22(15,2)17-5-9-23(3)18(21(17)19)6-10-24(23)11-7-20(27)28-24/h12,17-19,21H,4-11,13H2,1-3H3/t17-,18-,19+,21+,22-,23-,24+/m0/s1

>  <InChIKey>
LXMSZDCAJNLERA-ZHYRCANASA-N

>  <SMILES>
CC(=O)S[C@@H]1CC2=CC(=O)CC[C@@]2([C@@H]3[C@@H]1[C@@H]4CC[C@]5([C@]4(CC3)C)CCC(=O)O5)C

$$$$
