4RN4_3T7_A_303
  RCSB PDB08012023113D
Coordinates from PDB:4RN4:A:303 Model:1 without hydrogens
 39 43  0  0  0  0            999 V2000
   15.7260    1.5200   18.0760   O 0  0  0  0  0  0  0  0  0  0  0  0
   15.2870    1.3350   16.7250   S 0  0  0  0  0  0  0  0  0  0  0  0
   15.9560    2.6290   15.7060   C 0  0  0  0  0  0  0  0  0  0  0  0
   17.3230    2.6820   15.4160   N 0  0  0  0  0  0  0  0  0  0  0  0
   17.5720    3.8370   14.5390   N 0  0  0  0  0  0  0  0  0  0  0  0
   16.4010    4.5380   14.2720   C 0  0  0  0  0  0  0  0  0  0  0  0
   16.3870    5.7340   13.4550   N 0  0  0  0  0  0  0  0  0  0  0  0
   17.5210    6.0810   12.5960   C 0  0  0  0  0  0  0  0  0  0  0  0
   18.3900    7.1450   13.3230   C 0  0  0  0  0  0  0  0  0  0  0  0
   18.6390    8.4610   12.9480   C 0  0  0  0  0  0  0  0  0  0  0  0
   19.4300    8.9970   13.8950   N 0  0  0  0  0  0  0  0  0  0  0  0
   19.9360   10.3210   13.9530   C 0  0  0  0  0  0  0  0  0  0  0  0
   21.1630   10.5610   14.5600   C 0  0  0  0  0  0  0  0  0  0  0  0
   21.6520   11.8700   14.6320   C 0  0  0  0  0  0  0  0  0  0  0  0
   20.9090   12.9320   14.1050   C 0  0  0  0  0  0  0  0  0  0  0  0
   19.6770   12.6850   13.5070   C 0  0  0  0  0  0  0  0  0  0  0  0
   19.1900   11.3770   13.4360   C 0  0  0  0  0  0  0  0  0  0  0  0
   19.6740    8.0670   14.8440   N 0  0  0  0  0  0  0  0  0  0  0  0
   19.0280    6.9150   14.4850   N 0  0  0  0  0  0  0  0  0  0  0  0
   15.2170    6.5780   13.5110   C 0  0  0  0  0  0  0  0  0  0  0  0
   15.0700    7.3180   12.1800   C 0  0  0  0  0  0  0  0  0  0  0  0
   15.6290    8.5580   11.8870   C 0  0  0  0  0  0  0  0  0  0  0  0
   15.3090    8.8670   10.6460   N 0  0  0  0  0  0  0  0  0  0  0  0
   15.7010   10.0510   10.0010   C 0  0  0  0  0  0  0  0  0  0  0  0
   15.3550    9.8940    8.5530   C 0  0  0  0  0  0  0  0  0  0  0  0
   15.1460   11.1900    7.8340   C 0  0  0  0  0  0  0  0  0  0  0  0
   15.6440   12.4040    8.5340   C 0  0  0  0  0  0  0  0  0  0  0  0
   15.2590   12.4970    9.9930   C 0  0  0  0  0  0  0  0  0  0  0  0
   14.0470   13.3670   10.1760   C 0  0  0  0  0  0  0  0  0  0  0  0
   12.9940   12.9840    9.2990   O 0  0  0  0  0  0  0  0  0  0  0  0
   15.0130   11.1770   10.6410   O 0  0  0  0  0  0  0  0  0  0  0  0
   17.1030   12.4460    8.4370   O 0  0  0  0  0  0  0  0  0  0  0  0
   13.7200   11.3440    7.5530   O 0  0  0  0  0  0  0  0  0  0  0  0
   16.4140    9.1290    7.9270   O 0  0  0  0  0  0  0  0  0  0  0  0
   14.5520    7.8610   10.1110   N 0  0  0  0  0  0  0  0  0  0  0  0
   14.4260    6.9000   11.0770   N 0  0  0  0  0  0  0  0  0  0  0  0
   15.0860    3.8670   15.0170   S 0  0  0  0  0  0  0  0  0  0  0  0
   15.8490   -0.0630   16.1140   N 0  0  0  0  0  0  0  0  0  0  0  0
   13.8670    1.4760   16.6630   O 0  0  0  0  0  0  0  0  0  0  0  0
 33 26  1  0  0  0  0
 26 27  1  0  0  0  0
 26 25  1  0  0  0  0
 34 25  1  0  0  0  0
 32 27  1  0  0  0  0
 27 28  1  0  0  0  0
 25 24  1  0  0  0  0
 30 29  1  0  0  0  0
 28 29  1  0  0  0  0
 28 31  1  0  0  0  0
 24 31  1  0  0  0  0
 24 23  1  0  0  0  0
 35 23  1  0  0  0  0
 35 36  2  0  0  0  0
 23 22  1  0  0  0  0
 36 21  1  0  0  0  0
 22 21  2  0  0  0  0
 21 20  1  0  0  0  0
  8  9  1  0  0  0  0
  8  7  1  0  0  0  0
 10  9  2  0  0  0  0
 10 11  1  0  0  0  0
  9 19  1  0  0  0  0
 17 16  2  0  0  0  0
 17 12  1  0  0  0  0
  7 20  1  0  0  0  0
  7  6  1  0  0  0  0
 16 15  1  0  0  0  0
 11 12  1  0  0  0  0
 11 18  1  0  0  0  0
 12 13  2  0  0  0  0
 15 14  2  0  0  0  0
  6  5  2  0  0  0  0
  6 37  1  0  0  0  0
 19 18  2  0  0  0  0
  5  4  1  0  0  0  0
 13 14  1  0  0  0  0
 37  3  1  0  0  0  0
  4  3  2  0  0  0  0
  3  2  1  0  0  0  0
 38  2  1  0  0  0  0
 39  2  2  0  0  0  0
  2  1  2  0  0  0  0
M  END
>  <InstanceId>
4RN4_3T7_A_303

>  <ChemCompId>
3T7

>  <PdbId>
4RN4

>  <ChainId>
A

>  <ResidueNumber>
303

>  <InsertionCode>


>  <Model>
1

>  <AltIds>


>  <MissingHeavyAtoms>
0

>  <ObservedFormula>
C20 N10 O7 S2

>  <Name>
2-({[1-(beta-D-glucopyranosyl)-1H-1,2,3-triazol-4-yl]methyl}[(1-phenyl-1H-1,2,3-triazol-4-yl)methyl]amino)-5-sulfamoyl-1,3,4-thiadiazole

>  <SystematicName>
5-[[1-[(2R,3R,4S,5S,6R)-6-(hydroxymethyl)-3,4,5-tris(oxidanyl)oxan-2-yl]-1,2,3-triazol-4-yl]methyl-[(1-phenyl-1,2,3-triazol-4-yl)methyl]amino]-1,3,4-thiadiazole-2-sulfonamide

>  <Synonyms>


>  <Type>
NON-POLYMER

>  <Formula>
C20 H24 N10 O7 S2

>  <MolecularWeight>
580.597

>  <ModifiedDate>
2015-01-23

>  <Parent>


>  <OneLetterCode>


>  <SubcomponentList>


>  <AmbiguousFlag>
N

>  <InChI>
InChI=1S/C20H24N10O7S2/c21-39(35,36)20-25-24-19(38-20)28(6-11-8-29(26-22-11)13-4-2-1-3-5-13)7-12-9-30(27-23-12)18-17(34)16(33)15(32)14(10-31)37-18/h1-5,8-9,14-18,31-34H,6-7,10H2,(H2,21,35,36)/t14-,15-,16+,17-,18-/m1/s1

>  <InChIKey>
LSGCOZZUFANMGB-UYTYNIKBSA-N

>  <SMILES>
c1ccc(cc1)n2cc(nn2)CN(Cc3cn(nn3)[C@H]4[C@@H]([C@H]([C@@H]([C@H](O4)CO)O)O)O)c5nnc(s5)S(=O)(=O)N

$$$$
