2HL4_BO1_A_264
  RCSB PDB08012017083D
Coordinates from PDB:2HL4:A:264 Model:1 without hydrogens
 22 23  0  0  0  0            999 V2000
   -5.9720    0.9500   16.6870   S 0  0  0  0  0  0  0  0  0  0  0  0
   -5.4260    1.0860   18.0080   O 0  0  0  0  0  0  0  0  0  0  0  0
   -7.3950    1.0440   16.5180   O 0  0  0  0  0  0  0  0  0  0  0  0
   -5.4870   -0.4620   16.1140   N 0  0  0  0  0  0  0  0  0  0  0  0
   -5.2420    2.2240   15.7260   C 0  0  0  0  0  0  0  0  0  0  0  0
   -6.0080    3.3220   15.2590   C 0  0  0  0  0  0  0  0  0  0  0  0
   -5.4050    4.3220   14.5030   C 0  0  0  0  0  0  0  0  0  0  0  0
   -4.0030    4.2580   14.1840   C 0  0  0  0  0  0  0  0  0  0  0  0
   -3.2600    3.1490   14.6640   C 0  0  0  0  0  0  0  0  0  0  0  0
   -3.8660    2.1560   15.4160   C 0  0  0  0  0  0  0  0  0  0  0  0
   -3.3500    5.2310   13.4360   N 0  0  0  0  0  0  0  0  0  0  0  0
   -3.8590    6.5120   13.1010   C 0  0  0  0  0  0  0  0  0  0  0  0
   -2.8340    7.3080   12.2910   C 0  0  0  0  0  0  0  0  0  0  0  0
   -3.4220    8.6770   11.9380   C 0  0  0  0  0  0  0  0  0  0  0  0
   -4.6740    8.4710   11.1120   C 0  0  0  0  0  0  0  0  0  0  0  0
   -5.6970    7.6530   11.9440   C 0  0  0  0  0  0  0  0  0  0  0  0
   -6.9700    7.3730   11.1970   C 0  0  0  0  0  0  0  0  0  0  0  0
   -5.1070    6.3680   12.3240   O 0  0  0  0  0  0  0  0  0  0  0  0
   -1.6550    7.4390   13.0930   O 0  0  0  0  0  0  0  0  0  0  0  0
   -2.4590    9.4140   11.1850   O 0  0  0  0  0  0  0  0  0  0  0  0
   -5.2430    9.7390   10.7680   O 0  0  0  0  0  0  0  0  0  0  0  0
   -6.7370    6.4480   10.1410   O 0  0  0  0  0  0  0  0  0  0  0  0
  1  2  2  0  0  0  0
  1  3  2  0  0  0  0
  1  4  1  0  0  0  0
  1  5  1  0  0  0  0
  5  6  1  0  0  0  0
  5 10  2  0  0  0  0
  6  7  2  0  0  0  0
  7  8  1  0  0  0  0
  8  9  2  0  0  0  0
  8 11  1  0  0  0  0
  9 10  1  0  0  0  0
 11 12  1  0  0  0  0
 12 13  1  0  0  0  0
 12 18  1  0  0  0  0
 13 14  1  0  0  0  0
 13 19  1  0  0  0  0
 14 15  1  0  0  0  0
 14 20  1  0  0  0  0
 15 16  1  0  0  0  0
 15 21  1  0  0  0  0
 16 17  1  0  0  0  0
 16 18  1  0  0  0  0
 17 22  1  0  0  0  0
M  END
>  <InstanceId>
2HL4_BO1_A_264

>  <ChemCompId>
BO1

>  <PdbId>
2HL4

>  <ChainId>
A

>  <ResidueNumber>
264

>  <InsertionCode>


>  <Model>
1

>  <AltIds>


>  <MissingHeavyAtoms>
0

>  <ObservedFormula>
C12 N2 O7 S

>  <Name>
N-(4-sulfamoylphenyl)-beta-D-glucopyranosylamine

>  <SystematicName>
4-[[(2R,3R,4S,5S,6R)-3,4,5-trihydroxy-6-(hydroxymethyl)oxan-2-yl]amino]benzenesulfonamide

>  <Synonyms>
N-[4-(AMINOSULFONYL)PHENYL]-BETA-D-GLUCOPYRANOSYLAMINE; N-(4-sulfamoylphenyl)-beta-D-glucosylamine; N-(4-sulfamoylphenyl)-D-glucosylamine; N-(4-sulfamoylphenyl)-glucosylamine

>  <Type>
D-saccharide

>  <Formula>
C12 H18 N2 O7 S

>  <MolecularWeight>
334.346

>  <ModifiedDate>
2020-07-17

>  <Parent>


>  <OneLetterCode>


>  <SubcomponentList>


>  <AmbiguousFlag>
N

>  <InChI>
InChI=1S/C12H18N2O7S/c13-22(19,20)7-3-1-6(2-4-7)14-12-11(18)10(17)9(16)8(5-15)21-12/h1-4,8-12,14-18H,5H2,(H2,13,19,20)/t8-,9-,10+,11-,12-/m1/s1

>  <InChIKey>
RMCYKIOWPVOBJX-RMPHRYRLSA-N

>  <SMILES>
c1cc(ccc1N[C@H]2[C@@H]([C@H]([C@@H]([C@H](O2)CO)O)O)O)S(=O)(=O)N

$$$$
