3EXE_TPP_A_1005
  RCSB PDB08012018583D
Coordinates from PDB:3EXE:A:1005 Model:1 without hydrogens
 26 27  0  0  0  0            999 V2000
   26.6050   12.6150   54.4360   N 0  0  0  0  0  0  0  0  0  0  0  0
   26.3440   12.0410   55.6670   C 0  0  0  0  0  0  0  0  0  0  0  0
   25.2810   10.9350   55.7880   C 0  0  0  0  0  0  0  0  0  0  0  0
   27.0800   12.4880   56.7440   N 0  0  0  0  0  0  0  0  0  0  0  0
   28.0250   13.4570   56.5370   C 0  0  0  0  0  0  0  0  0  0  0  0
   28.7120   13.8370   57.6220   N 0  0  0  0  0  0  0  0  0  0  0  0
   28.2570   14.0350   55.2640   C 0  0  0  0  0  0  0  0  0  0  0  0
   27.5430   13.5700   54.2000   C 0  0  0  0  0  0  0  0  0  0  0  0
   29.2830   15.1410   54.9980   C 0  0  0  0  0  0  0  0  0  0  0  0
   28.6940   16.3390   55.5690   N 0  3  0  0  0  0  0  0  0  0  0  0
   28.8740   16.7600   56.8940   C 0  0  0  0  0  0  0  0  0  0  0  0
   28.0180   18.1230   57.2400   S 0  0  0  0  0  0  0  0  0  0  0  0
   27.4060   18.1760   55.6820   C 0  0  0  0  0  0  0  0  0  0  0  0
   27.8090   17.1630   54.8740   C 0  0  0  0  0  0  0  0  0  0  0  0
   27.3590   17.0080   53.4230   C 0  0  0  0  0  0  0  0  0  0  0  0
   26.4390   19.2920   55.2730   C 0  0  0  0  0  0  0  0  0  0  0  0
   25.2960   19.3670   56.2630   C 0  0  0  0  0  0  0  0  0  0  0  0
   24.6490   20.6240   56.1290   O 0  0  0  0  0  0  0  0  0  0  0  0
   23.3920   21.0810   57.0380   P 0  0  0  0  0  0  0  0  0  0  0  0
   22.5170   19.9330   57.4500   O 0  0  0  0  0  0  0  0  0  0  0  0
   22.7190   22.2410   56.3680   O 0  0  0  0  0  0  0  0  0  0  0  0
   24.1080   21.5180   58.4260   O 0  0  0  0  0  0  0  0  0  0  0  0
   24.8510   22.8660   58.9090   P 0  0  0  0  0  0  0  0  0  0  0  0
   24.6950   23.9470   57.8490   O 0  0  0  0  0  0  0  0  0  0  0  0
   24.1900   23.2310   60.2200   O 0  0  0  0  0  0  0  0  0  0  0  0
   26.2820   22.5260   59.1690   O 0  0  0  0  0  0  0  0  0  0  0  0
  1  2  2  0  0  0  0
  1  8  1  0  0  0  0
  2  3  1  0  0  0  0
  2  4  1  0  0  0  0
  4  5  2  0  0  0  0
  5  6  1  0  0  0  0
  5  7  1  0  0  0  0
  7  8  2  0  0  0  0
  7  9  1  0  0  0  0
  9 10  1  0  0  0  0
 10 11  2  0  0  0  0
 10 14  1  0  0  0  0
 11 12  1  0  0  0  0
 12 13  1  0  0  0  0
 13 14  2  0  0  0  0
 13 16  1  0  0  0  0
 14 15  1  0  0  0  0
 16 17  1  0  0  0  0
 17 18  1  0  0  0  0
 18 19  1  0  0  0  0
 19 20  2  0  0  0  0
 19 21  1  0  0  0  0
 19 22  1  0  0  0  0
 22 23  1  0  0  0  0
 23 24  2  0  0  0  0
 23 25  1  0  0  0  0
 23 26  1  0  0  0  0
M  CHG  1  10   1
M  END
>  <InstanceId>
3EXE_TPP_A_1005

>  <ChemCompId>
TPP

>  <PdbId>
3EXE

>  <ChainId>
A

>  <ResidueNumber>
1005

>  <InsertionCode>


>  <Model>
1

>  <AltIds>


>  <MissingHeavyAtoms>
0

>  <ObservedFormula>
C12 N4 O7 P2 S

>  <Name>
THIAMINE DIPHOSPHATE

>  <SystematicName>
2-[3-[(4-amino-2-methyl-pyrimidin-5-yl)methyl]-4-methyl-1,3-thiazol-3-ium-5-yl]ethyl phosphono hydrogen phosphate

>  <Synonyms>


>  <Type>
NON-POLYMER

>  <Formula>
C12 H19 N4 O7 P2 S

>  <MolecularWeight>
425.314

>  <ModifiedDate>
2011-06-04

>  <Parent>


>  <OneLetterCode>


>  <SubcomponentList>


>  <AmbiguousFlag>
N

>  <InChI>
InChI=1S/C12H18N4O7P2S/c1-8-11(3-4-22-25(20,21)23-24(17,18)19)26-7-16(8)6-10-5-14-9(2)15-12(10)13/h5,7H,3-4,6H2,1-2H3,(H4-,13,14,15,17,18,19,20,21)/p+1

>  <InChIKey>
AYEKOFBPNLCAJY-UHFFFAOYSA-O

>  <SMILES>
Cc1c(sc[n+]1Cc2cnc(nc2N)C)CCO[P@](=O)(O)OP(=O)(O)O

$$$$
