4BKS_X6C_C_1203
  RCSB PDB08012021143D
Coordinates from PDB:4BKS:C:1203 Model:1 without hydrogens
 24 26  0  0  0  0            999 V2000
   -6.9610   33.6190   -2.3860   C 0  0  0  0  0  0  0  0  0  0  0  0
   -7.1040   34.2220   -0.9540   C 0  0  0  0  0  0  0  0  0  0  0  0
   -6.8530   35.4170   -0.7690   O 0  0  0  0  0  0  0  0  0  0  0  0
   -7.4480   33.3820    0.0620   N 0  0  0  0  0  0  0  0  0  0  0  0
   -7.8150   31.9320    0.0000   C 0  0  0  0  0  0  0  0  0  0  0  0
   -8.6170   31.6670    1.2550   C 0  0  0  0  0  0  0  0  0  0  0  0
   -9.9830   32.0590    1.0620   O 0  0  0  0  0  0  0  0  0  0  0  0
   -7.9820   32.5610    2.2920   C 0  0  0  0  0  0  0  0  0  0  0  0
   -7.5880   33.8340    1.5120   C 0  0  0  0  0  0  0  0  0  0  0  0
   -6.4040   34.3580    2.0640   C 0  0  0  0  0  0  0  0  0  0  0  0
   -5.2920   33.9180    1.7380   O 0  0  0  0  0  0  0  0  0  0  0  0
   -6.6000   35.3350    2.9900   N 0  0  0  0  0  0  0  0  0  0  0  0
   -5.5140   35.9010    3.8270   C 0  0  0  0  0  0  0  0  0  0  0  0
   -5.2170   35.0740    4.9580   C 0  0  0  0  0  0  0  0  0  0  0  0
   -6.1120   34.0790    5.4260   C 0  0  0  0  0  0  0  0  0  0  0  0
   -5.8010   33.2700    6.5310   C 0  0  0  0  0  0  0  0  0  0  0  0
   -4.0170   35.2650    5.6640   C 0  0  0  0  0  0  0  0  0  0  0  0
   -3.7160   34.4700    6.7890   C 0  0  0  0  0  0  0  0  0  0  0  0
   -4.6070   33.4680    7.2440   C 0  0  0  0  0  0  0  0  0  0  0  0
   -4.3260   32.6890    8.3120   C 0  0  0  0  0  0  0  0  0  0  0  0
   -4.8920   31.4500    8.5720   O 0  0  0  0  0  0  0  0  0  0  0  0
   -4.3400   31.0020    9.7440   C 0  0  0  0  0  0  0  0  0  0  0  0
   -3.4840   31.9320   10.1690   N 0  0  0  0  0  0  0  0  0  0  0  0
   -3.4700   32.9550    9.3020   C 0  0  0  0  0  0  0  0  0  0  0  0
  1  2  1  0  0  0  0
  2  3  2  0  0  0  0
  2  4  1  0  0  0  0
  4  5  1  0  0  0  0
  4  9  1  0  0  0  0
  5  6  1  0  0  0  0
  6  7  1  0  0  0  0
  6  8  1  0  0  0  0
  8  9  1  0  0  0  0
  9 10  1  0  0  0  0
 10 11  2  0  0  0  0
 10 12  1  0  0  0  0
 12 13  1  0  0  0  0
 13 14  1  0  0  0  0
 14 15  1  0  0  0  0
 14 17  2  0  0  0  0
 15 16  2  0  0  0  0
 16 19  1  0  0  0  0
 17 18  1  0  0  0  0
 18 19  2  0  0  0  0
 19 20  1  0  0  0  0
 20 21  1  0  0  0  0
 20 24  2  0  0  0  0
 21 22  1  0  0  0  0
 22 23  2  0  0  0  0
 23 24  1  0  0  0  0
M  END
>  <InstanceId>
4BKS_X6C_C_1203

>  <ChemCompId>
X6C

>  <PdbId>
4BKS

>  <ChainId>
C

>  <ResidueNumber>
1203

>  <InsertionCode>


>  <Model>
1

>  <AltIds>


>  <MissingHeavyAtoms>
0

>  <ObservedFormula>
C17 N3 O4

>  <Name>
(2S,4R)-1-ethanoyl-N-[[4-(1,3-oxazol-5-yl)phenyl]methyl]-4-oxidanyl-pyrrolidine-2-carboxamide

>  <SystematicName>
(2S,4R)-1-ethanoyl-N-[[4-(1,3-oxazol-5-yl)phenyl]methyl]-4-oxidanyl-pyrrolidine-2-carboxamide

>  <Synonyms>


>  <Type>
non-polymer

>  <Formula>
C17 H19 N3 O4

>  <MolecularWeight>
329.35

>  <ModifiedDate>
2014-09-05

>  <Parent>


>  <OneLetterCode>


>  <SubcomponentList>


>  <AmbiguousFlag>
N

>  <InChI>
InChI=1S/C17H19N3O4/c1-11(21)20-9-14(22)6-15(20)17(23)19-7-12-2-4-13(5-3-12)16-8-18-10-24-16/h2-5,8,10,14-15,22H,6-7,9H2,1H3,(H,19,23)/t14-,15+/m1/s1

>  <InChIKey>
KFYARNZFJDIZMC-CABCVRRESA-N

>  <SMILES>
CC(=O)N1C[C@@H](C[C@H]1C(=O)NCc2ccc(cc2)c3cnco3)O

$$$$
