1HK4_T44_A_1008
  RCSB PDB08012015043D
Coordinates from PDB:1HK4:A:1008 Model:1 without hydrogens
 24 25  0  0  0  0            999 V2000
   19.9390   10.5710   28.4700   C 0  0  0  0  0  0  0  0  0  0  0  0
   21.1460   10.1870   27.8620   C 0  0  0  0  0  0  0  0  0  0  0  0
   21.3810   10.3590   26.4820   C 0  0  0  0  0  0  0  0  0  0  0  0
   20.3590   10.9500   25.6550   C 0  0  0  0  0  0  0  0  0  0  0  0
   19.1670   11.3290   26.2560   C 0  0  0  0  0  0  0  0  0  0  0  0
   18.9280   11.1580   27.6480   C 0  0  0  0  0  0  0  0  0  0  0  0
   19.7550   10.3650   29.9740   C 0  0  0  0  0  0  0  0  0  0  0  0
   20.0590    8.9880   30.5470   C 0  0  0  0  0  0  0  0  0  0  0  0
   20.2560    8.9390   32.0910   C 0  0  0  0  0  0  0  0  0  0  0  0
   21.2590   12.2440   23.7610   C 0  0  0  0  0  0  0  0  0  0  0  0
   21.4640   12.2220   22.3660   C 0  0  0  0  0  0  0  0  0  0  0  0
   22.1220   13.3170   21.7680   C 0  0  0  0  0  0  0  0  0  0  0  0
   22.6000   14.4820   22.5190   C 0  0  0  0  0  0  0  0  0  0  0  0
   22.3470   14.4070   23.9110   C 0  0  0  0  0  0  0  0  0  0  0  0
   21.6970   13.3410   24.5500   C 0  0  0  0  0  0  0  0  0  0  0  0
   18.9170    8.0720   30.2060   N 0  0  0  0  0  0  0  0  0  0  0  0
   20.5960   11.1190   24.2950   O 0  0  0  0  0  0  0  0  0  0  0  0
   23.2050   15.4860   21.9370   O 0  0  0  0  0  0  0  0  0  0  0  0
   19.5000    9.6380   32.7860   O 0  0  0  0  0  0  0  0  0  0  0  0
   21.1510    8.2040   32.5210   O 0  0  0  0  0  0  0  0  0  0  0  0
   23.2130    9.7650   25.6740   I 0  0  0  0  0  0  0  0  0  0  0  0
   22.4340   13.3230   19.6990   I 0  0  0  0  0  0  0  0  0  0  0  0
   17.6480   12.2010   25.0820   I 0  0  0  0  0  0  0  0  0  0  0  0
   22.9680   15.9870   25.1110   I 0  0  0  0  0  0  0  0  0  0  0  0
  1  2  2  0  0  0  0
  1  6  1  0  0  0  0
  1  7  1  0  0  0  0
  2  3  1  0  0  0  0
  3  4  2  0  0  0  0
  3 21  1  0  0  0  0
  4  5  1  0  0  0  0
  4 17  1  0  0  0  0
  5  6  2  0  0  0  0
  5 23  1  0  0  0  0
  7  8  1  0  0  0  0
  8  9  1  0  0  0  0
  8 16  1  0  0  0  0
  9 19  2  0  0  0  0
  9 20  1  0  0  0  0
 10 11  2  0  0  0  0
 10 15  1  0  0  0  0
 10 17  1  0  0  0  0
 11 12  1  0  0  0  0
 12 13  2  0  0  0  0
 12 22  1  0  0  0  0
 13 14  1  0  0  0  0
 13 18  1  0  0  0  0
 14 15  2  0  0  0  0
 14 24  1  0  0  0  0
M  END
>  <InstanceId>
1HK4_T44_A_1008

>  <ChemCompId>
T44

>  <PdbId>
1HK4

>  <ChainId>
A

>  <ResidueNumber>
1008

>  <InsertionCode>


>  <Model>
1

>  <AltIds>


>  <MissingHeavyAtoms>
0

>  <ObservedFormula>
C15 N O4 I4

>  <Name>
3,5,3',5'-TETRAIODO-L-THYRONINE

>  <SystematicName>
(2S)-2-amino-3-[4-(4-hydroxy-3,5-diiodo-phenoxy)-3,5-diiodo-phenyl]propanoic acid

>  <Synonyms>


>  <Type>
NON-POLYMER

>  <Formula>
C15 H11 I4 N O4

>  <MolecularWeight>
776.87

>  <ModifiedDate>
2011-06-04

>  <Parent>


>  <OneLetterCode>


>  <SubcomponentList>


>  <AmbiguousFlag>
N

>  <InChI>
InChI=1S/C15H11I4NO4/c16-8-4-7(5-9(17)13(8)21)24-14-10(18)1-6(2-11(14)19)3-12(20)15(22)23/h1-2,4-5,12,21H,3,20H2,(H,22,23)/t12-/m0/s1

>  <InChIKey>
XUIIKFGFIJCVMT-LBPRGKRZSA-N

>  <SMILES>
c1c(cc(c(c1I)Oc2cc(c(c(c2)I)O)I)I)C[C@@H](C(=O)O)N

$$$$
