4PV5_CBW_A_202
  RCSB PDB08012022553D
Coordinates from PDB:4PV5:A:202 Model:1 without hydrogens
 34 38  0  0  0  0            999 V2000
   15.7620    3.0170   23.5270   C 0  0  0  0  0  0  0  0  0  0  0  0
   16.7300    2.6540   24.6520   C 0  0  0  0  0  0  0  0  0  0  0  0
   16.7250    1.1640   24.9150   C 0  0  0  0  0  0  0  0  0  0  0  0
   15.3500    0.6260   25.3530   C 0  0  0  0  0  0  0  0  0  0  0  0
   14.2890    1.7550   25.1290   C 0  0  0  0  0  0  0  0  0  0  0  0
   12.8600    1.3740   25.5180   C 0  0  0  0  0  0  0  0  0  0  0  0
   12.0690    2.6470   25.8190   C 0  0  0  0  0  0  0  0  0  0  0  0
   11.9860    3.6010   24.6170   C 0  0  0  0  0  0  0  0  0  0  0  0
   13.4060    3.8080   23.9900   C 0  0  0  0  0  0  0  0  0  0  0  0
   14.3190    2.5370   23.7720   C 0  0  0  0  0  0  0  0  0  0  0  0
   13.3100    4.7610   22.8020   C 0  0  0  0  0  0  0  0  0  0  0  0
   12.2860    5.8090   22.8740   C 0  0  0  0  0  0  0  0  0  0  0  0
   11.3990    5.9500   23.8660   C 0  0  0  0  0  0  0  0  0  0  0  0
   11.4570    5.0190   25.0820   C 0  0  0  0  0  0  0  0  0  0  0  0
   10.0820    4.8500   25.7600   C 0  0  0  0  0  0  0  0  0  0  0  0
    9.2360    6.1080   25.7740   C 0  0  0  0  0  0  0  0  0  0  0  0
    8.9890    6.6670   24.3690   C 0  0  0  0  0  0  0  0  0  0  0  0
   10.3510    7.0580   23.7400   C 0  0  0  0  0  0  0  0  0  0  0  0
   13.8940    1.6890   22.5590   C 0  0  0  0  0  0  0  0  0  0  0  0
   10.8820    8.4200   24.2260   C 0  0  0  0  0  0  0  0  0  0  0  0
    9.9100    9.6000   24.0110   C 0  0  0  0  0  0  0  0  0  0  0  0
    8.5230    9.0740   23.6150   C 0  0  0  0  0  0  0  0  0  0  0  0
    8.0820    7.9020   24.4710   C 0  0  0  0  0  0  0  0  0  0  0  0
   15.0670   -0.6890   24.6290   C 0  0  0  0  0  0  0  0  0  0  0  0
   15.4050    0.3150   26.8480   C 0  0  0  0  0  0  0  0  0  0  0  0
   11.0060    2.9820   23.6020   C 0  0  0  0  0  0  0  0  0  0  0  0
   12.3890    5.6790   26.0950   C 0  0  0  0  0  0  0  0  0  0  0  0
    8.2880    5.6090   23.5070   C 0  0  0  0  0  0  0  0  0  0  0  0
   10.2980   10.5240   22.8630   C 0  0  0  0  0  0  0  0  0  0  0  0
    9.8110   10.4230   25.3020   C 0  0  0  0  0  0  0  0  0  0  0  0
   17.2100    0.4730   23.7580   O 0  0  0  0  0  0  0  0  0  0  0  0
   14.0260    4.6760   21.8160   O 0  0  0  0  0  0  0  0  0  0  0  0
   11.4000   10.2120   22.2200   O 0  0  0  0  0  0  0  0  0  0  0  0
    9.5820   11.4650   22.5630   O 0  0  0  0  0  0  0  0  0  0  0  0
  1  2  1  0  0  0  0
  1 10  1  0  0  0  0
  2  3  1  0  0  0  0
  3  4  1  0  0  0  0
  3 31  1  0  0  0  0
  4  5  1  0  0  0  0
  4 24  1  0  0  0  0
  4 25  1  0  0  0  0
  5  6  1  0  0  0  0
  5 10  1  0  0  0  0
  6  7  1  0  0  0  0
  7  8  1  0  0  0  0
  8  9  1  0  0  0  0
  8 14  1  0  0  0  0
  8 26  1  0  0  0  0
  9 10  1  0  0  0  0
  9 11  1  0  0  0  0
 10 19  1  0  0  0  0
 11 12  1  0  0  0  0
 11 32  2  0  0  0  0
 12 13  2  0  0  0  0
 13 14  1  0  0  0  0
 13 18  1  0  0  0  0
 14 15  1  0  0  0  0
 14 27  1  0  0  0  0
 15 16  1  0  0  0  0
 16 17  1  0  0  0  0
 17 18  1  0  0  0  0
 17 23  1  0  0  0  0
 17 28  1  0  0  0  0
 18 20  1  0  0  0  0
 20 21  1  0  0  0  0
 21 22  1  0  0  0  0
 21 29  1  0  0  0  0
 21 30  1  0  0  0  0
 22 23  1  0  0  0  0
 29 33  2  0  0  0  0
 29 34  1  0  0  0  0
M  END
>  <InstanceId>
4PV5_CBW_A_202

>  <ChemCompId>
CBW

>  <PdbId>
4PV5

>  <ChainId>
A

>  <ResidueNumber>
202

>  <InsertionCode>


>  <Model>
1

>  <AltIds>


>  <MissingHeavyAtoms>
0

>  <ObservedFormula>
C30 O4

>  <Name>
(3BETA,5BETA,14BETA)-3-HYDROXY-11-OXOOLEAN-12-EN-29-OIC ACID

>  <SystematicName>
(2S,4aS,6aR,6aS,6bR,8aR,10S,12aS,14bR)-10-hydroxy-2,4a,6a,6b,9,9,12a-heptamethyl-13-oxo-3,4,5,6,6a,7,8,8a,10,11,12,14b-dodecahydro-1H-picene-2-carboxylic acid

>  <Synonyms>


>  <Type>
non-polymer

>  <Formula>
C30 H46 O4

>  <MolecularWeight>
470.684

>  <ModifiedDate>
2011-06-04

>  <Parent>


>  <OneLetterCode>


>  <SubcomponentList>


>  <AmbiguousFlag>
N

>  <InChI>
InChI=1S/C30H46O4/c1-25(2)21-8-11-30(7)23(28(21,5)10-9-22(25)32)20(31)16-18-19-17-27(4,24(33)34)13-12-26(19,3)14-15-29(18,30)6/h16,19,21-23,32H,8-15,17H2,1-7H3,(H,33,34)/t19-,21-,22-,23+,26+,27-,28-,29+,30+/m0/s1

>  <InChIKey>
MPDGHEJMBKOTSU-YKLVYJNSSA-N

>  <SMILES>
CC1([C@@H]2CC[C@@]3([C@@H]([C@]2(CC[C@@H]1O)C)C(=O)C=C4[C@]3(CC[C@@]5([C@H]4C[C@@](CC5)(C)C(=O)O)C)C)C)C

$$$$
