2CC7_LUM_A_1068
  RCSB PDB08012016463D
Coordinates from PDB:2CC7:A:1068 Model:1 without hydrogens
 18 20  0  0  0  0            999 V2000
    0.2070   22.2550   -2.7100   N 0  0  0  0  0  0  0  0  0  0  0  0
   -0.4750   21.9390   -3.8170   C 0  0  0  0  0  0  0  0  0  0  0  0
    0.7220   21.2480   -1.9280   C 0  0  0  0  0  0  0  0  0  0  0  0
   -0.9670   22.8540   -4.5400   O 0  0  0  0  0  0  0  0  0  0  0  0
   -0.6730   20.6330   -4.1860   N 0  0  0  0  0  0  0  0  0  0  0  0
   -0.2170   19.5850   -3.4590   C 0  0  0  0  0  0  0  0  0  0  0  0
   -0.4190   18.4070   -3.8510   O 0  0  0  0  0  0  0  0  0  0  0  0
    0.5090   19.8370   -2.2980   C 0  0  0  0  0  0  0  0  0  0  0  0
    1.0080   18.8350   -1.5190   N 0  0  0  0  0  0  0  0  0  0  0  0
    1.7090   19.1710   -0.4120   C 0  0  0  0  0  0  0  0  0  0  0  0
    2.2300   18.1530    0.4000   C 0  0  0  0  0  0  0  0  0  0  0  0
    1.9180   20.5130   -0.0550   C 0  0  0  0  0  0  0  0  0  0  0  0
    2.9590   18.4810    1.5380   C 0  0  0  0  0  0  0  0  0  0  0  0
    3.5300   17.3450    2.3830   C 0  0  0  0  0  0  0  0  0  0  0  0
    3.1660   19.7970    1.8860   C 0  0  0  0  0  0  0  0  0  0  0  0
    3.9580   20.1230    3.1450   C 0  0  0  0  0  0  0  0  0  0  0  0
    2.6350   20.8350    1.1030   C 0  0  0  0  0  0  0  0  0  0  0  0
    1.4330   21.5120   -0.8200   N 0  0  0  0  0  0  0  0  0  0  0  0
  1  2  1  0  0  0  0
  1  3  1  0  0  0  0
  2  4  2  0  0  0  0
  2  5  1  0  0  0  0
  3  8  2  0  0  0  0
  3 18  1  0  0  0  0
  5  6  1  0  0  0  0
  6  7  2  0  0  0  0
  6  8  1  0  0  0  0
  8  9  1  0  0  0  0
  9 10  2  0  0  0  0
 10 11  1  0  0  0  0
 10 12  1  0  0  0  0
 11 13  2  0  0  0  0
 12 17  1  0  0  0  0
 12 18  2  0  0  0  0
 13 14  1  0  0  0  0
 13 15  1  0  0  0  0
 15 16  1  0  0  0  0
 15 17  2  0  0  0  0
M  END
>  <InstanceId>
2CC7_LUM_A_1068

>  <ChemCompId>
LUM

>  <PdbId>
2CC7

>  <ChainId>
A

>  <ResidueNumber>
1068

>  <InsertionCode>


>  <Model>
1

>  <AltIds>


>  <MissingHeavyAtoms>
0

>  <ObservedFormula>
C12 N4 O2

>  <Name>
LUMICHROME

>  <SystematicName>
7,8-dimethyl-1H-benzo[g]pteridine-2,4-dione

>  <Synonyms>
7,8-DIMETHYLALLOXAZINE; 6,7-DIMETHYLALLOXAZINE

>  <Type>
NON-POLYMER

>  <Formula>
C12 H10 N4 O2

>  <MolecularWeight>
242.233

>  <ModifiedDate>
2020-06-17

>  <Parent>


>  <OneLetterCode>


>  <SubcomponentList>


>  <AmbiguousFlag>
N

>  <InChI>
InChI=1S/C12H10N4O2/c1-5-3-7-8(4-6(5)2)14-10-9(13-7)11(17)16-12(18)15-10/h3-4H,1-2H3,(H2,14,15,16,17,18)

>  <InChIKey>
ZJTJUVIJVLLGSP-UHFFFAOYSA-N

>  <SMILES>
Cc1cc2c(cc1C)nc3c(n2)C(=O)NC(=O)N3

$$$$
