1JSV_U55_A_400
  RCSB PDB08012015153D
Coordinates from PDB:1JSV:A:400 Model:1 without hydrogens
 18 19  0  0  0  0            999 V2000
   14.2130    8.6870   24.6230   N 0  0  0  0  0  0  0  0  0  0  0  0
   13.4030    9.5650   23.9370   C 0  0  0  0  0  0  0  0  0  0  0  0
   13.7080    9.8330   22.6380   N 0  0  0  0  0  0  0  0  0  0  0  0
   12.8280   10.6440   21.9280   C 0  0  0  0  0  0  0  0  0  0  0  0
   11.7900   11.2960   22.4730   N 0  0  0  0  0  0  0  0  0  0  0  0
   12.2500   10.1510   24.5330   C 0  0  0  0  0  0  0  0  0  0  0  0
   11.4710   11.0590   23.8010   C 0  0  0  0  0  0  0  0  0  0  0  0
   10.4610   11.7520   24.3080   N 0  0  0  0  0  0  0  0  0  0  0  0
    9.6680   11.5140   25.3580   C 0  0  0  0  0  0  0  0  0  0  0  0
    8.8140   12.5290   25.8590   C 0  0  0  0  0  0  0  0  0  0  0  0
    8.0310   12.3130   27.0080   C 0  0  0  0  0  0  0  0  0  0  0  0
    9.6380   10.2460   25.9770   C 0  0  0  0  0  0  0  0  0  0  0  0
    8.8770   10.0340   27.1320   C 0  0  0  0  0  0  0  0  0  0  0  0
    8.0690   11.0510   27.6560   C 0  0  0  0  0  0  0  0  0  0  0  0
    6.8790   10.6850   28.8500   S 0  0  0  0  0  0  0  0  0  0  0  0
    5.9160    9.7910   28.2910   O 0  0  0  0  0  0  0  0  0  0  0  0
    6.1970   11.9810   29.1600   O 0  0  0  0  0  0  0  0  0  0  0  0
    7.4650   10.1110   30.2190   N 0  0  0  0  0  0  0  0  0  0  0  0
  1  2  1  0  0  0  0
  2  3  2  0  0  0  0
  2  6  1  0  0  0  0
  3  4  1  0  0  0  0
  4  5  2  0  0  0  0
  5  7  1  0  0  0  0
  6  7  2  0  0  0  0
  7  8  1  0  0  0  0
  8  9  1  0  0  0  0
  9 10  2  0  0  0  0
  9 12  1  0  0  0  0
 10 11  1  0  0  0  0
 11 14  2  0  0  0  0
 12 13  2  0  0  0  0
 13 14  1  0  0  0  0
 14 15  1  0  0  0  0
 15 16  2  0  0  0  0
 15 17  2  0  0  0  0
 15 18  1  0  0  0  0
M  END
>  <InstanceId>
1JSV_U55_A_400

>  <ChemCompId>
U55

>  <PdbId>
1JSV

>  <ChainId>
A

>  <ResidueNumber>
400

>  <InsertionCode>


>  <Model>
1

>  <AltIds>


>  <MissingHeavyAtoms>
0

>  <ObservedFormula>
C10 N5 O2 S

>  <Name>
4-[(6-AMINO-4-PYRIMIDINYL)AMINO]BENZENESULFONAMIDE

>  <SystematicName>
4-[(6-aminopyrimidin-4-yl)amino]benzenesulfonamide

>  <Synonyms>


>  <Type>
NON-POLYMER

>  <Formula>
C10 H11 N5 O2 S

>  <MolecularWeight>
265.292

>  <ModifiedDate>
2011-06-04

>  <Parent>


>  <OneLetterCode>


>  <SubcomponentList>


>  <AmbiguousFlag>
N

>  <InChI>
InChI=1S/C10H11N5O2S/c11-9-5-10(14-6-13-9)15-7-1-3-8(4-2-7)18(12,16)17/h1-6H,(H2,12,16,17)(H3,11,13,14,15)

>  <InChIKey>
FVFVVRPJERUECT-UHFFFAOYSA-N

>  <SMILES>
c1cc(ccc1Nc2cc(ncn2)N)S(=O)(=O)N

$$$$
