1YPE_UIP_H_5555
  RCSB PDB08012016283D
Coordinates from PDB:1YPE:H:5555 Model:1 without hydrogens
 33 38  0  0  0  0            999 V2000
   10.4780  -11.8790   24.1020   N 0  0  0  0  0  0  0  0  0  0  0  0
   11.2010  -10.8070   23.7380   C 0  0  0  0  0  0  0  0  0  0  0  0
   10.8160   -9.6400   24.3190   N 0  0  0  0  0  0  0  0  0  0  0  0
   12.2760  -10.9070   22.8150   C 0  0  0  0  0  0  0  0  0  0  0  0
   12.5950  -12.1660   22.2840   C 0  0  0  0  0  0  0  0  0  0  0  0
   13.6580  -12.3050   21.3750   C 0  0  0  0  0  0  0  0  0  0  0  0
   14.4080  -11.1940   20.9800   C 0  0  0  0  0  0  0  0  0  0  0  0
   14.0640   -9.9390   21.5120   C 0  0  0  0  0  0  0  0  0  0  0  0
   13.0340   -9.7900   22.4220   C 0  0  0  0  0  0  0  0  0  0  0  0
   15.5400  -11.3240   19.9990   C 0  0  0  0  0  0  0  0  0  0  0  0
   15.3840  -12.5390   19.1310   N 0  0  0  0  0  0  0  0  0  0  0  0
   14.3780  -12.4050   18.0400   C 0  0  0  0  0  0  0  0  0  0  0  0
   15.1810  -12.4830   16.7170   C 0  0  0  0  0  0  0  0  0  0  0  0
   16.5850  -12.0440   17.0900   C 0  0  0  0  0  0  0  0  0  0  0  0
   16.7410  -12.7050   18.4770   C 0  0  0  0  0  0  0  0  0  0  0  0
   17.7720  -11.8600   19.2980   C 0  0  0  0  0  0  0  0  0  0  0  0
   18.8750  -12.8050   19.8750   C 0  0  0  0  0  0  0  0  0  0  0  0
   18.3590  -13.2410   21.1420   N 0  0  0  0  0  0  0  0  0  0  0  0
   17.1700  -12.6420   21.4890   C 0  0  0  0  0  0  0  0  0  0  0  0
   16.6000  -12.7760   22.6030   O 0  0  0  0  0  0  0  0  0  0  0  0
   16.9660  -11.4190   20.5600   C 0  0  0  0  0  0  0  0  0  0  0  0
   18.8590  -14.4250   21.9280   C 0  0  0  0  0  0  0  0  0  0  0  0
   19.8900  -14.1260   22.9970   C 0  0  0  0  0  0  0  0  0  0  0  0
   19.4920  -13.6940   24.3040   C 0  0  0  0  0  0  0  0  0  0  0  0
   20.3820  -13.3700   25.3500   C 0  0  0  0  0  0  0  0  0  0  0  0
   21.7340  -13.4580   25.0110   C 0  0  0  0  0  0  0  0  0  0  0  0
   22.8270  -13.0620   25.7580   O 0  0  0  0  0  0  0  0  0  0  0  0
   23.9540  -13.7110   25.0730   C 0  0  0  0  0  0  0  0  0  0  0  0
   23.5520  -14.1020   23.7340   O 0  0  0  0  0  0  0  0  0  0  0  0
   22.1660  -13.8890   23.7400   C 0  0  0  0  0  0  0  0  0  0  0  0
   21.2620  -14.2250   22.7050   C 0  0  0  0  0  0  0  0  0  0  0  0
   20.2760  -12.1470   19.9730   C 0  0  0  0  0  0  0  0  0  0  0  0
   20.9020  -12.0300   18.5770   C 0  0  0  0  0  0  0  0  0  0  0  0
  1  2  2  0  0  0  0
  2  3  1  0  0  0  0
  2  4  1  0  0  0  0
  4  5  2  0  0  0  0
  4  9  1  0  0  0  0
  5  6  1  0  0  0  0
  6  7  2  0  0  0  0
  7  8  1  0  0  0  0
  7 10  1  0  0  0  0
  8  9  2  0  0  0  0
 10 11  1  0  0  0  0
 10 21  1  0  0  0  0
 11 12  1  0  0  0  0
 11 15  1  0  0  0  0
 12 13  1  0  0  0  0
 13 14  1  0  0  0  0
 14 15  1  0  0  0  0
 15 16  1  0  0  0  0
 16 17  1  0  0  0  0
 16 21  1  0  0  0  0
 17 18  1  0  0  0  0
 17 32  1  0  0  0  0
 18 19  1  0  0  0  0
 18 22  1  0  0  0  0
 19 20  2  0  0  0  0
 19 21  1  0  0  0  0
 22 23  1  0  0  0  0
 23 24  2  0  0  0  0
 23 31  1  0  0  0  0
 24 25  1  0  0  0  0
 25 26  2  0  0  0  0
 26 27  1  0  0  0  0
 26 30  1  0  0  0  0
 27 28  1  0  0  0  0
 28 29  1  0  0  0  0
 29 30  1  0  0  0  0
 30 31  2  0  0  0  0
 32 33  1  0  0  0  0
M  END
>  <InstanceId>
1YPE_UIP_H_5555

>  <ChemCompId>
UIP

>  <PdbId>
1YPE

>  <ChainId>
H

>  <ResidueNumber>
5555

>  <InsertionCode>


>  <Model>
1

>  <AltIds>


>  <MissingHeavyAtoms>
0

>  <ObservedFormula>
C26 N4 O3

>  <Name>
(1R,3AS,4R,8AS,8BR)-4-(2-BENZO[1,3]DIOXOL-5-YLMETHYL-1-ETHYL-3-OXO-DECAHYDRO-PYRROLO[3,4-A]PYRROLIZIN-4-YL)-BENZAMIDINE

>  <SystematicName>
4-[(1R,3aS,4R,5S,8aS,8bR)-2-(1,3-benzodioxol-5-ylmethyl)-1-ethyl-3-oxo-1,3a,4,6,7,8,8a,8b-octahydropyrrolo[3,4-a]pyrrolizin-4-yl]benzenecarboximidamide

>  <Synonyms>


>  <Type>
NON-POLYMER

>  <Formula>
C26 H30 N4 O3

>  <MolecularWeight>
446.541

>  <ModifiedDate>
2011-06-04

>  <Parent>


>  <OneLetterCode>


>  <SubcomponentList>


>  <AmbiguousFlag>
N

>  <InChI>
InChI=1S/C26H30N4O3/c1-2-18-22-19-4-3-11-29(19)24(16-6-8-17(9-7-16)25(27)28)23(22)26(31)30(18)13-15-5-10-20-21(12-15)33-14-32-20/h5-10,12,18-19,22-24H,2-4,11,13-14H2,1H3,(H3,27,28)/t18-,19+,22+,23+,24+/m1/s1

>  <InChIKey>
RCAUWWFTOCHSJH-KEXZDOINSA-N

>  <SMILES>
CC[C@@H]1[C@H]2[C@@H]3CCC[N@@]3[C@H]([C@H]2C(=O)N1Cc4ccc5c(c4)OCO5)c6ccc(cc6)C(=N)N

$$$$
