5NW1_9BH_C_301
  RCSB PDB08022002363D
Coordinates from PDB:5NW1:C:301 Model:1 without hydrogens
 36 39  0  0  0  0            999 V2000
   10.0320   56.3290   97.5660   C 0  0  0  0  0  0  0  0  0  0  0  0
   10.1300   57.7790   97.9960   C 0  0  0  0  0  0  0  0  0  0  0  0
   10.0090   58.2050   96.5450   C 0  0  0  0  0  0  0  0  0  0  0  0
   10.1620   56.7580   96.1190   C 0  0  0  0  0  0  0  0  0  0  0  0
   11.5620   56.4560   95.5820   C 0  0  0  0  0  0  0  0  0  0  0  0
   12.5090   57.2220   95.7970   O 0  0  0  0  0  0  0  0  0  0  0  0
   11.7060   55.2820   94.9690   N 0  0  0  0  0  0  0  0  0  0  0  0
   12.7410   54.5350   94.2370   C 0  0  0  0  0  0  0  0  0  0  0  0
   12.8660   53.1050   94.7770   C 0  0  0  0  0  0  0  0  0  0  0  0
   13.3620   53.1830   96.2330   C 0  0  0  0  0  0  0  0  0  0  0  0
   13.9050   52.3220   93.9560   C 0  0  0  0  0  0  0  0  0  0  0  0
   11.5140   52.3550   94.7860   C 0  0  0  0  0  0  0  0  0  0  0  0
   12.3950   54.6440   92.7240   C 0  0  0  0  0  0  0  0  0  0  0  0
   11.2440   54.4830   92.3490   O 0  0  0  0  0  0  0  0  0  0  0  0
   13.3790   55.0000   91.8600   N 0  0  0  0  0  0  0  0  0  0  0  0
   14.8190   55.3630   92.0910   C 0  0  0  0  0  0  0  0  0  0  0  0
   15.2420   56.1490   90.8500   C 0  0  0  0  0  0  0  0  0  0  0  0
   14.9240   57.5570   90.9600   O 0  0  0  0  0  0  0  0  0  0  0  0
   14.4030   55.4910   89.7530   C 0  0  0  0  0  0  0  0  0  0  0  0
   13.0530   55.1290   90.4010   C 0  0  0  0  0  0  0  0  0  0  0  0
   12.5650   53.9250   89.7940   C 0  0  0  0  0  0  0  0  0  0  0  0
   12.9640   52.8230   90.1470   O 0  0  0  0  0  0  0  0  0  0  0  0
   11.7480   54.0630   88.7380   N 0  0  0  0  0  0  0  0  0  0  0  0
   11.2720   52.9050   87.9320   C 0  0  0  0  0  0  0  0  0  0  0  0
   12.0810   52.6780   86.7610   C 0  0  0  0  0  0  0  0  0  0  0  0
   12.9680   53.6310   86.2540   C 0  0  0  0  0  0  0  0  0  0  0  0
   13.7440   53.3800   85.1090   C 0  0  0  0  0  0  0  0  0  0  0  0
   12.0060   51.4660   86.0770   C 0  0  0  0  0  0  0  0  0  0  0  0
   12.7740   51.2210   84.9290   C 0  0  0  0  0  0  0  0  0  0  0  0
   13.6590   52.1780   84.4100   C 0  0  0  0  0  0  0  0  0  0  0  0
   14.4070   51.9650   83.2910   C 0  0  0  0  0  0  0  0  0  0  0  0
   16.0790   52.4270   83.0400   S 0  0  0  0  0  0  0  0  0  0  0  0
   16.1770   51.8200   81.5060   C 0  0  0  0  0  0  0  0  0  0  0  0
   14.9870   51.3020   81.1770   N 0  0  0  0  0  0  0  0  0  0  0  0
   14.0310   51.3780   82.1310   C 0  0  0  0  0  0  0  0  0  0  0  0
   12.6360   50.7940   81.8210   C 0  0  0  0  0  0  0  0  0  0  0  0
 34 33  2  0  0  0  0
 34 35  1  0  0  0  0
 33 32  1  0  0  0  0
 36 35  1  0  0  0  0
 35 31  2  0  0  0  0
 32 31  1  0  0  0  0
 31 30  1  0  0  0  0
 30 29  2  0  0  0  0
 30 27  1  0  0  0  0
 29 28  1  0  0  0  0
 27 26  2  0  0  0  0
 28 25  2  0  0  0  0
 26 25  1  0  0  0  0
 25 24  1  0  0  0  0
 24 23  1  0  0  0  0
 23 21  1  0  0  0  0
 19 20  1  0  0  0  0
 19 17  1  0  0  0  0
 21 22  2  0  0  0  0
 21 20  1  0  0  0  0
 20 15  1  0  0  0  0
 17 18  1  0  0  0  0
 17 16  1  0  0  0  0
 15 16  1  0  0  0  0
 15 13  1  0  0  0  0
 14 13  2  0  0  0  0
 13  8  1  0  0  0  0
 11  9  1  0  0  0  0
  8  9  1  0  0  0  0
  8  7  1  0  0  0  0
  9 12  1  0  0  0  0
  9 10  1  0  0  0  0
  7  5  1  0  0  0  0
  5  6  2  0  0  0  0
  5  4  1  0  0  0  0
  4  3  1  0  0  0  0
  4  1  1  0  0  0  0
  3  2  1  0  0  0  0
  1  2  1  0  0  0  0
M  END
>  <InstanceId>
5NW1_9BH_C_301

>  <ChemCompId>
9BH

>  <PdbId>
5NW1

>  <ChainId>
C

>  <ResidueNumber>
301

>  <InsertionCode>


>  <Model>
1

>  <AltIds>


>  <MissingHeavyAtoms>
0

>  <ObservedFormula>
C27 N4 O4 S

>  <Name>
(2~{S},4~{R})-1-[(2~{S})-2-(cyclobutylcarbonylamino)-3,3-dimethyl-butanoyl]-~{N}-[[4-(4-methyl-1,3-thiazol-5-yl)phenyl]methyl]-4-oxidanyl-pyrrolidine-2-carboxamide

>  <SystematicName>
(2~{S},4~{R})-1-[(2~{S})-2-(cyclobutylcarbonylamino)-3,3-dimethyl-butanoyl]-~{N}-[[4-(4-methyl-1,3-thiazol-5-yl)phenyl]methyl]-4-oxidanyl-pyrrolidine-2-carboxamide

>  <Synonyms>


>  <Type>
NON-POLYMER

>  <Formula>
C27 H36 N4 O4 S

>  <MolecularWeight>
512.664

>  <ModifiedDate>
2017-09-15

>  <Parent>


>  <OneLetterCode>


>  <SubcomponentList>


>  <AmbiguousFlag>
N

>  <InChI>
InChI=1S/C27H36N4O4S/c1-16-22(36-15-29-16)18-10-8-17(9-11-18)13-28-25(34)21-12-20(32)14-31(21)26(35)23(27(2,3)4)30-24(33)19-6-5-7-19/h8-11,15,19-21,23,32H,5-7,12-14H2,1-4H3,(H,28,34)(H,30,33)/t20-,21+,23-/m1/s1

>  <InChIKey>
DKNMIOWXDLCWDG-FUPPJEDESA-N

>  <SMILES>
Cc1c(scn1)c2ccc(cc2)CNC(=O)[C@@H]3C[C@H](CN3C(=O)[C@H](C(C)(C)C)NC(=O)C4CCC4)O

$$$$
