1FJS_Z34_A_500
  RCSB PDB08012014543D
Coordinates from PDB:1FJS:A:500 Model:1 without hydrogens
 38 41  0  0  0  0            999 V2000
    5.1670    9.4980   22.6840   C 0  0  0  0  0  0  0  0  0  0  0  0
    4.5580   10.4970   23.2650   F 0  0  0  0  0  0  0  0  0  0  0  0
    4.7310    8.9980   21.4340   C 0  0  0  0  0  0  0  0  0  0  0  0
    5.4490    7.9160   20.8570   C 0  0  0  0  0  0  0  0  0  0  0  0
    5.1090    7.4180   19.7160   F 0  0  0  0  0  0  0  0  0  0  0  0
    6.5520    7.3730   21.5290   C 0  0  0  0  0  0  0  0  0  0  0  0
    6.9080    7.8760   22.6980   N 0  0  0  0  0  0  0  0  0  0  0  0
    6.2790    8.8930   23.3080   C 0  0  0  0  0  0  0  0  0  0  0  0
    8.7690   10.6520   23.1460   O 0  0  0  0  0  0  0  0  0  0  0  0
    6.7270    9.3140   24.4840   O 0  0  0  0  0  0  0  0  0  0  0  0
    7.9970    9.3070   24.8900   C 0  0  0  0  0  0  0  0  0  0  0  0
    8.2880    8.5680   26.0390   C 0  0  0  0  0  0  0  0  0  0  0  0
    9.6040    8.4850   26.5530   C 0  0  0  0  0  0  0  0  0  0  0  0
   10.6400    9.1830   25.8600   C 0  0  0  0  0  0  0  0  0  0  0  0
   10.3510    9.9210   24.7000   C 0  0  0  0  0  0  0  0  0  0  0  0
    9.0240    9.9810   24.2100   C 0  0  0  0  0  0  0  0  0  0  0  0
    9.8480    7.7430   27.7040   C 0  0  0  0  0  0  0  0  0  0  0  0
    8.8450    7.1710   28.4040   N 0  0  0  0  0  0  0  0  0  0  0  0
   11.0680    7.5150   28.1710   N 0  0  0  0  0  0  0  0  0  0  0  0
    7.2120    6.3890   20.9760   O 0  0  0  0  0  0  0  0  0  0  0  0
    6.9160    5.1320   20.6630   C 0  0  0  0  0  0  0  0  0  0  0  0
    6.0020    4.4760   21.5340   C 0  0  0  0  0  0  0  0  0  0  0  0
    5.6300    3.1400   21.2940   C 0  0  0  0  0  0  0  0  0  0  0  0
    6.1770    2.4660   20.1900   C 0  0  0  0  0  0  0  0  0  0  0  0
    7.0910    3.1210   19.3150   C 0  0  0  0  0  0  0  0  0  0  0  0
    7.4470    4.4460   19.5700   C 0  0  0  0  0  0  0  0  0  0  0  0
    7.6220    2.4620   18.2090   C 0  0  0  0  0  0  0  0  0  0  0  0
    8.7210    1.6960   18.1090   N 0  0  0  0  0  0  0  0  0  0  0  0
    9.6460    1.3530   19.1300   C 0  0  0  0  0  0  0  0  0  0  0  0
    7.0060    2.5470   17.0210   N 0  0  0  0  0  0  0  0  0  0  0  0
    8.8780    1.2220   16.7790   C 0  0  0  0  0  0  0  0  0  0  0  0
    7.6770    1.8230   16.0210   C 0  0  0  0  0  0  0  0  0  0  0  0
    3.6490    9.5560   20.8000   N 0  0  0  0  0  0  0  0  0  0  0  0
    2.2900    9.1450   21.1650   C 0  0  0  0  0  0  0  0  0  0  0  0
    1.9080    9.2410   22.6240   C 0  0  0  0  0  0  0  0  0  0  0  0
    1.3480   10.2660   23.1250   O 0  0  0  0  0  0  0  0  0  0  0  0
    2.1520    8.1850   23.4590   O 0  0  0  0  0  0  0  0  0  0  0  0
    3.8580   10.5430   19.7630   C 0  0  0  0  0  0  0  0  0  0  0  0
  1  2  1  0  0  0  0
  1  3  2  0  0  0  0
  1  8  1  0  0  0  0
  3  4  1  0  0  0  0
  3 33  1  0  0  0  0
  4  5  1  0  0  0  0
  4  6  2  0  0  0  0
  6  7  1  0  0  0  0
  6 20  1  0  0  0  0
  7  8  2  0  0  0  0
  8 10  1  0  0  0  0
  9 16  1  0  0  0  0
 10 11  1  0  0  0  0
 11 12  2  0  0  0  0
 11 16  1  0  0  0  0
 12 13  1  0  0  0  0
 13 14  2  0  0  0  0
 13 17  1  0  0  0  0
 14 15  1  0  0  0  0
 15 16  2  0  0  0  0
 17 18  2  0  0  0  0
 17 19  1  0  0  0  0
 20 21  1  0  0  0  0
 21 22  2  0  0  0  0
 21 26  1  0  0  0  0
 22 23  1  0  0  0  0
 23 24  2  0  0  0  0
 24 25  1  0  0  0  0
 25 26  2  0  0  0  0
 25 27  1  0  0  0  0
 27 28  1  0  0  0  0
 27 30  2  0  0  0  0
 28 29  1  0  0  0  0
 28 31  1  0  0  0  0
 30 32  1  0  0  0  0
 31 32  1  0  0  0  0
 33 34  1  0  0  0  0
 33 38  1  0  0  0  0
 34 35  1  0  0  0  0
 35 36  2  0  0  0  0
 35 37  1  0  0  0  0
M  END
>  <InstanceId>
1FJS_Z34_A_500

>  <ChemCompId>
Z34

>  <PdbId>
1FJS

>  <ChainId>
A

>  <ResidueNumber>
500

>  <InsertionCode>


>  <Model>
1

>  <AltIds>


>  <MissingHeavyAtoms>
0

>  <ObservedFormula>
C25 N6 O5 F2

>  <Name>
N-[2-[5-[AMINO(IMINO)METHYL]-2-HYDROXYPHENOXY]-3,5-DIFLUORO-6-[3-(4,5-DIHYDRO-1-METHYL-1H-IMIDAZOL-2-YL)PHENOXY]PYRIDIN-4-YL]-N-METHYLGLYCINE

>  <SystematicName>
2-[[2-(5-carbamimidoyl-2-hydroxy-phenoxy)-3,5-difluoro-6-[3-(1-methyl-4,5-dihydroimidazol-2-yl)phenoxy]pyridin-4-yl]-methyl-amino]ethanoic acid

>  <Synonyms>


>  <Type>
NON-POLYMER

>  <Formula>
C25 H24 F2 N6 O5

>  <MolecularWeight>
526.492

>  <ModifiedDate>
2011-06-04

>  <Parent>


>  <OneLetterCode>


>  <SubcomponentList>


>  <AmbiguousFlag>
N

>  <InChI>
InChI=1S/C25H24F2N6O5/c1-32-9-8-30-23(32)14-4-3-5-15(10-14)37-24-19(26)21(33(2)12-18(35)36)20(27)25(31-24)38-17-11-13(22(28)29)6-7-16(17)34/h3-7,10-11,34H,8-9,12H2,1-2H3,(H3,28,29)(H,35,36)

>  <InChIKey>
NPNSVNGQJGRSNR-UHFFFAOYSA-N

>  <SMILES>
[H]/N=C(\c1ccc(c(c1)Oc2c(c(c(c(n2)Oc3cccc(c3)C4=NCCN4C)F)N(C)CC(=O)O)F)O)/N

$$$$
