3UMQ_BUA_A_172
  RCSB PDB08012020413D
Coordinates from PDB:3UMQ:A:172 Model:1 without hydrogens
  6  5  0  0  0  0            999 V2000
  -34.8580  -25.3280  -44.7580   C 0  0  0  0  0  0  0  0  0  0  0  0
  -35.6440  -24.9180  -43.5360   C 0  0  0  0  0  0  0  0  0  0  0  0
  -35.1840  -23.5340  -43.0680   C 0  0  0  0  0  0  0  0  0  0  0  0
  -36.2480  -22.8540  -42.2370   C 0  0  0  0  0  0  0  0  0  0  0  0
  -36.5670  -21.6910  -42.4950   O 0  0  0  0  0  0  0  0  0  0  0  0
  -36.7810  -23.4660  -41.3100   O 0  0  0  0  0  0  0  0  0  0  0  0
  1  2  1  0  0  0  0
  2  3  1  0  0  0  0
  3  4  1  0  0  0  0
  4  5  2  0  0  0  0
  4  6  1  0  0  0  0
M  END
>  <InstanceId>
3UMQ_BUA_A_172

>  <ChemCompId>
BUA

>  <PdbId>
3UMQ

>  <ChainId>
A

>  <ResidueNumber>
172

>  <InsertionCode>


>  <Model>
1

>  <AltIds>


>  <MissingHeavyAtoms>
0

>  <ObservedFormula>
C4 O2

>  <Name>
BUTANOIC ACID

>  <SystematicName>
butanoic acid

>  <Synonyms>


>  <Type>
NON-POLYMER

>  <Formula>
C4 H8 O2

>  <MolecularWeight>
88.105

>  <ModifiedDate>
2011-06-04

>  <Parent>


>  <OneLetterCode>


>  <SubcomponentList>


>  <AmbiguousFlag>
N

>  <InChI>
InChI=1S/C4H8O2/c1-2-3-4(5)6/h2-3H2,1H3,(H,5,6)

>  <InChIKey>
FERIUCNNQQJTOY-UHFFFAOYSA-N

>  <SMILES>
CCCC(=O)O

$$$$
