2BAK_AQZ_A_401
  RCSB PDB08012016403D
Coordinates from PDB:2BAK:A:401 Model:1 without hydrogens
 43 48  0  0  0  0            999 V2000
   -3.9910   -1.7880   26.9670   C 0  0  0  0  0  0  0  0  0  0  0  0
   -3.8760   -0.5170   26.3300   O 0  0  0  0  0  0  0  0  0  0  0  0
   -3.9240   -0.4240   24.9350   C 0  0  0  0  0  0  0  0  0  0  0  0
   -3.8950   -1.4880   24.0170   C 0  0  0  0  0  0  0  0  0  0  0  0
   -3.9490   -1.2820   22.6480   C 0  0  0  0  0  0  0  0  0  0  0  0
   -3.9180   -2.3630   21.8790   N 0  0  0  0  0  0  0  0  0  0  0  0
   -3.9760   -2.1700   20.5700   C 0  0  0  0  0  0  0  0  0  0  0  0
   -4.0660   -0.9810   19.9650   N 0  0  0  0  0  0  0  0  0  0  0  0
   -4.0760    0.1020   20.7500   C 0  0  0  0  0  0  0  0  0  0  0  0
   -4.1350    1.3720   20.1410   N 0  0  0  0  0  0  0  0  0  0  0  0
   -4.4030    1.6230   18.7890   C 0  0  0  0  0  0  0  0  0  0  0  0
   -3.4230    2.2170   17.9790   C 0  0  0  0  0  0  0  0  0  0  0  0
   -3.7160    2.5190   16.6400   C 0  0  0  0  0  0  0  0  0  0  0  0
   -2.7210    3.1140   15.8370   N 0  0  0  0  0  0  0  0  0  0  0  0
   -1.3610    2.8650   15.9100   C 0  0  0  0  0  0  0  0  0  0  0  0
   -0.8250    2.0720   16.7100   O 0  0  0  0  0  0  0  0  0  0  0  0
   -0.4980    3.5800   14.8970   C 0  0  0  0  0  0  0  0  0  0  0  0
   -0.7710    4.8250   14.2880   C 0  0  0  0  0  0  0  0  0  0  0  0
    0.1480    5.2990   13.3450   C 0  0  0  0  0  0  0  0  0  0  0  0
    1.2830    4.6040   12.9770   N 0  0  0  0  0  0  0  0  0  0  0  0
    1.5260    3.4010   13.5310   C 0  0  0  0  0  0  0  0  0  0  0  0
    0.6350    2.8700   14.4870   C 0  0  0  0  0  0  0  0  0  0  0  0
    2.6750    2.6730   13.1370   N 0  0  0  0  0  0  0  0  0  0  0  0
    3.8810    3.3910   12.6360   C 0  0  0  0  0  0  0  0  0  0  0  0
    4.9340    2.4080   12.0260   C 0  0  0  0  0  0  0  0  0  0  0  0
    5.0310    1.2170   12.8090   O 0  0  0  0  0  0  0  0  0  0  0  0
    3.7180    0.6310   12.8450   C 0  0  0  0  0  0  0  0  0  0  0  0
    2.9320    1.4260   13.8580   C 0  0  0  0  0  0  0  0  0  0  0  0
   -4.9690    2.1930   16.1300   C 0  0  0  0  0  0  0  0  0  0  0  0
   -5.9360    1.6210   16.9270   C 0  0  0  0  0  0  0  0  0  0  0  0
   -5.6920    1.3110   18.2530   C 0  0  0  0  0  0  0  0  0  0  0  0
   -6.8440    0.6870   19.0230   C 0  0  0  0  0  0  0  0  0  0  0  0
   -4.0350    0.0250   22.1370   C 0  0  0  0  0  0  0  0  0  0  0  0
   -4.0460    1.1320   23.0200   C 0  0  0  0  0  0  0  0  0  0  0  0
   -3.9960    0.8840   24.4260   C 0  0  0  0  0  0  0  0  0  0  0  0
   -4.0130    1.8410   25.3990   O 0  0  0  0  0  0  0  0  0  0  0  0
   -3.8520    3.1850   24.9290   C 0  0  0  0  0  0  0  0  0  0  0  0
   -3.8090    4.1810   26.1220   C 0  0  0  0  0  0  0  0  0  0  0  0
   -2.9750    3.7180   27.2460   N 0  0  0  0  0  0  0  0  0  0  0  0
   -3.1890    4.3090   28.5760   C 0  0  0  0  0  0  0  0  0  0  0  0
   -2.2410    3.4330   29.3810   C 0  0  0  0  0  0  0  0  0  0  0  0
   -1.0010    3.4880   28.4930   C 0  0  0  0  0  0  0  0  0  0  0  0
   -1.5130    3.7320   27.0630   C 0  0  0  0  0  0  0  0  0  0  0  0
  1  2  1  0  0  0  0
  2  3  1  0  0  0  0
  3  4  2  0  0  0  0
  3 35  1  0  0  0  0
  4  5  1  0  0  0  0
  5  6  2  0  0  0  0
  5 33  1  0  0  0  0
  6  7  1  0  0  0  0
  7  8  2  0  0  0  0
  8  9  1  0  0  0  0
  9 10  1  0  0  0  0
  9 33  2  0  0  0  0
 10 11  1  0  0  0  0
 11 12  2  0  0  0  0
 11 31  1  0  0  0  0
 12 13  1  0  0  0  0
 13 14  1  0  0  0  0
 13 29  2  0  0  0  0
 14 15  1  0  0  0  0
 15 16  2  0  0  0  0
 15 17  1  0  0  0  0
 17 18  2  0  0  0  0
 17 22  1  0  0  0  0
 18 19  1  0  0  0  0
 19 20  2  0  0  0  0
 20 21  1  0  0  0  0
 21 22  2  0  0  0  0
 21 23  1  0  0  0  0
 23 24  1  0  0  0  0
 23 28  1  0  0  0  0
 24 25  1  0  0  0  0
 25 26  1  0  0  0  0
 26 27  1  0  0  0  0
 27 28  1  0  0  0  0
 29 30  1  0  0  0  0
 30 31  2  0  0  0  0
 31 32  1  0  0  0  0
 33 34  1  0  0  0  0
 34 35  2  0  0  0  0
 35 36  1  0  0  0  0
 36 37  1  0  0  0  0
 37 38  1  0  0  0  0
 38 39  1  0  0  0  0
 39 40  1  0  0  0  0
 39 43  1  0  0  0  0
 40 41  1  0  0  0  0
 41 42  1  0  0  0  0
 42 43  1  0  0  0  0
M  END
>  <InstanceId>
2BAK_AQZ_A_401

>  <ChemCompId>
AQZ

>  <PdbId>
2BAK

>  <ChainId>
A

>  <ResidueNumber>
401

>  <InsertionCode>


>  <Model>
1

>  <AltIds>


>  <MissingHeavyAtoms>
0

>  <ObservedFormula>
C32 N7 O4

>  <Name>
N-(3-{[7-METHOXY-6-(2-PYRROLIDIN-1-YLETHOXY)QUINAZOLIN-4-YL]AMINO}-4-METHYLPHENYL)-2-MORPHOLIN-4-YLISONICOTINAMIDE

>  <SystematicName>
N-[3-[[7-methoxy-6-(2-pyrrolidin-1-ylethoxy)quinazolin-4-yl]amino]-4-methyl-phenyl]-2-morpholin-4-yl-pyridine-4-carboxamide

>  <Synonyms>


>  <Type>
NON-POLYMER

>  <Formula>
C32 H37 N7 O4

>  <MolecularWeight>
583.681

>  <ModifiedDate>
2014-09-12

>  <Parent>


>  <OneLetterCode>


>  <SubcomponentList>


>  <AmbiguousFlag>
N

>  <InChI>
InChI=1S/C32H37N7O4/c1-22-5-6-24(36-32(40)23-7-8-33-30(17-23)39-12-14-42-15-13-39)18-26(22)37-31-25-19-29(43-16-11-38-9-3-4-10-38)28(41-2)20-27(25)34-21-35-31/h5-8,17-21H,3-4,9-16H2,1-2H3,(H,36,40)(H,34,35,37)

>  <InChIKey>
LGTPGGBSDIEHKM-UHFFFAOYSA-N

>  <SMILES>
Cc1ccc(cc1Nc2c3cc(c(cc3ncn2)OC)OCCN4CCCC4)NC(=O)c5ccnc(c5)N6CCOCC6

$$$$
