6FE0_V90_A_302
  RCSB PDB08022004383D
Coordinates from PDB:6FE0:A:302 Model:1 without hydrogens
 26 27  0  0  0  0            999 V2000
  -30.6310   12.8460  -92.6400   F 0  0  0  0  0  0  0  0  0  0  0  0
  -29.2970   12.8690  -92.7010   C 0  0  0  0  0  0  0  0  0  0  0  0
  -28.7050   13.8410  -93.6320   C 0  0  0  0  0  0  0  0  0  0  0  0
  -29.7360   14.8150  -94.5920   S 0  0  0  0  0  0  0  0  0  0  0  0
  -29.8000   16.4360  -93.9280   C 0  0  0  0  0  0  0  0  0  0  0  0
  -30.5360   16.4580  -92.6100   C 0  0  0  0  0  0  0  0  0  0  0  0
  -29.8480   17.4190  -91.8180   O 0  0  0  0  0  0  0  0  0  0  0  0
  -27.2390   13.9330  -93.7340   C 0  0  0  0  0  0  0  0  0  0  0  0
  -26.6720   14.8240  -94.5730   F 0  0  0  0  0  0  0  0  0  0  0  0
  -28.4460   11.9360  -91.8950   C 0  0  0  0  0  0  0  0  0  0  0  0
  -26.9590   12.0560  -91.9660   C 0  0  0  0  0  0  0  0  0  0  0  0
  -25.9340   11.0890  -91.1390   S 0  0  0  0  0  0  0  0  0  0  0  0
  -25.4260   11.7840  -89.9740   O 0  0  0  0  0  0  0  0  0  0  0  0
  -24.6860   10.6910  -92.0640   N 0  0  0  0  0  0  0  0  0  0  0  0
  -26.5950    9.8380  -90.8630   O 0  0  0  0  0  0  0  0  0  0  0  0
  -26.3890   13.0400  -92.9180   C 0  0  0  0  0  0  0  0  0  0  0  0
  -25.0630   13.1420  -93.0170   F 0  0  0  0  0  0  0  0  0  0  0  0
  -28.9510   11.1600  -90.9220   N 0  0  0  0  0  0  0  0  0  0  0  0
  -29.9520   11.7010  -89.9910   C 0  0  0  0  0  0  0  0  0  0  0  0
  -29.3010   12.8780  -89.2280   C 0  0  0  0  0  0  0  0  0  0  0  0
  -30.1640   14.1090  -88.9460   C 0  0  0  0  0  0  0  0  0  0  0  0
  -31.5280   13.8740  -88.3330   C 0  0  0  0  0  0  0  0  0  0  0  0
  -31.4420   13.2070  -86.9630   C 0  0  0  0  0  0  0  0  0  0  0  0
  -31.0870   11.7230  -86.8820   C 0  0  0  0  0  0  0  0  0  0  0  0
  -31.5070   10.8560  -88.0600   C 0  0  0  0  0  0  0  0  0  0  0  0
  -30.3560   10.5890  -89.0330   C 0  0  0  0  0  0  0  0  0  0  0  0
 24 23  1  0  0  0  0
 24 25  1  0  0  0  0
 23 22  1  0  0  0  0
 22 21  1  0  0  0  0
  7  6  1  0  0  0  0
 25 26  1  0  0  0  0
  6  5  1  0  0  0  0
 21 20  1  0  0  0  0
 26 19  1  0  0  0  0
  5  4  1  0  0  0  0
 20 19  1  0  0  0  0
 19 18  1  0  0  0  0
  1  2  1  0  0  0  0
  4  3  1  0  0  0  0
  2  3  2  0  0  0  0
  2 10  1  0  0  0  0
 18 10  1  0  0  0  0
  3  8  1  0  0  0  0
 10 11  2  0  0  0  0
  8  9  1  0  0  0  0
  8 16  2  0  0  0  0
 11 16  1  0  0  0  0
 11 12  1  0  0  0  0
 14 12  1  0  0  0  0
 16 17  1  0  0  0  0
 13 12  2  0  0  0  0
 12 15  2  0  0  0  0
M  END
>  <InstanceId>
6FE0_V90_A_302

>  <ChemCompId>
V90

>  <PdbId>
6FE0

>  <ChainId>
A

>  <ResidueNumber>
302

>  <InsertionCode>


>  <Model>
1

>  <AltIds>


>  <MissingHeavyAtoms>
0

>  <ObservedFormula>
C16 N2 O3 S2 F3

>  <Name>
2-(cyclooctylamino)-3,5,6-trifluoro-4-[(2-hydroxyethyl)sulfanyl]benzenesulfonamide

>  <SystematicName>
2-(cyclooctylamino)-3,5,6-tris(fluoranyl)-4-(2-hydroxyethylsulfanyl)benzenesulfonamide

>  <Synonyms>


>  <Type>
NON-POLYMER

>  <Formula>
C16 H23 F3 N2 O3 S2

>  <MolecularWeight>
412.491

>  <ModifiedDate>
2015-01-23

>  <Parent>


>  <OneLetterCode>


>  <SubcomponentList>


>  <AmbiguousFlag>
N

>  <InChI>
InChI=1S/C16H23F3N2O3S2/c17-11-12(18)16(26(20,23)24)14(13(19)15(11)25-9-8-22)21-10-6-4-2-1-3-5-7-10/h10,21-22H,1-9H2,(H2,20,23,24)

>  <InChIKey>
ZUTOCUUMVDYVHW-UHFFFAOYSA-N

>  <SMILES>
C1CCCC(CCC1)Nc2c(c(c(c(c2S(=O)(=O)N)F)F)SCCO)F

$$$$
