2JDS_L20_A_1351
  RCSB PDB08012017173D
Coordinates from PDB:2JDS:A:1351 Model:1 without hydrogens
 30 34  0  0  0  0            999 V2000
    5.2660   10.4400    5.5250   C 0  0  0  0  0  0  0  0  0  0  0  0
    4.6210   10.2650    4.1860   C 0  0  0  0  0  0  0  0  0  0  0  0
    3.2910   10.2130    3.9520   N 0  0  0  0  0  0  0  0  0  0  0  0
    3.0470   10.0550    2.6330   N 0  0  0  0  0  0  0  0  0  0  0  0
    4.2510   10.0170    1.9210   C 0  0  0  0  0  0  0  0  0  0  0  0
    4.5590    9.8680    0.5620   C 0  0  0  0  0  0  0  0  0  0  0  0
    5.8810    9.8780    0.1840   C 0  0  0  0  0  0  0  0  0  0  0  0
    6.9390    9.9970    1.1450   C 0  0  0  0  0  0  0  0  0  0  0  0
    6.6500   10.1370    2.5050   C 0  0  0  0  0  0  0  0  0  0  0  0
    5.3130   10.1620    2.9070   C 0  0  0  0  0  0  0  0  0  0  0  0
    8.3300    9.9810    0.6680   C 0  0  0  0  0  0  0  0  0  0  0  0
    8.5930   10.4500   -0.6350   C 0  0  0  0  0  0  0  0  0  0  0  0
    9.7940   10.4900   -1.2240   N 0  0  0  0  0  0  0  0  0  0  0  0
   10.8200   10.0540   -0.4890   C 0  0  0  0  0  0  0  0  0  0  0  0
   10.6840    9.5480    0.8020   C 0  0  0  0  0  0  0  0  0  0  0  0
   11.8460    9.1220    1.4320   O 0  0  0  0  0  0  0  0  0  0  0  0
   11.9780    8.1240    2.4350   C 0  0  0  0  0  0  0  0  0  0  0  0
   13.4770    7.7060    2.3250   C 0  0  0  0  0  0  0  0  0  0  0  0
   13.6780    6.9530    1.0090   N 0  0  0  0  0  0  0  0  0  0  0  0
   14.4850    8.9090    2.5360   C 0  0  0  0  0  0  0  0  0  0  0  0
   14.6420    9.8410    1.3870   C 0  0  0  0  0  0  0  0  0  0  0  0
   15.3690    9.5750    0.2160   C 0  0  0  0  0  0  0  0  0  0  0  0
   15.2870   10.6400   -0.6800   N 0  0  0  0  0  0  0  0  0  0  0  0
   14.4790   11.6510   -0.1260   C 0  0  0  0  0  0  0  0  0  0  0  0
   14.0800   12.9000   -0.6610   C 0  0  0  0  0  0  0  0  0  0  0  0
   13.2600   13.7160    0.1230   C 0  0  0  0  0  0  0  0  0  0  0  0
   12.8400   13.2790    1.4070   C 0  0  0  0  0  0  0  0  0  0  0  0
   13.2220   12.0460    1.9290   C 0  0  0  0  0  0  0  0  0  0  0  0
   14.0590   11.1890    1.1860   C 0  0  0  0  0  0  0  0  0  0  0  0
    9.4230    9.4970    1.4340   C 0  0  0  0  0  0  0  0  0  0  0  0
  1  2  1  0  0  0  0
  2  3  2  0  0  0  0
  2 10  1  0  0  0  0
  3  4  1  0  0  0  0
  4  5  1  0  0  0  0
  5  6  2  0  0  0  0
  5 10  1  0  0  0  0
  6  7  1  0  0  0  0
  7  8  2  0  0  0  0
  8  9  1  0  0  0  0
  8 11  1  0  0  0  0
  9 10  2  0  0  0  0
 11 12  1  0  0  0  0
 11 30  2  0  0  0  0
 12 13  2  0  0  0  0
 13 14  1  0  0  0  0
 14 15  2  0  0  0  0
 15 16  1  0  0  0  0
 15 30  1  0  0  0  0
 16 17  1  0  0  0  0
 17 18  1  0  0  0  0
 18 19  1  0  0  0  0
 18 20  1  0  0  0  0
 20 21  1  0  0  0  0
 21 22  2  0  0  0  0
 21 29  1  0  0  0  0
 22 23  1  0  0  0  0
 23 24  1  0  0  0  0
 24 25  2  0  0  0  0
 24 29  1  0  0  0  0
 25 26  1  0  0  0  0
 26 27  2  0  0  0  0
 27 28  1  0  0  0  0
 28 29  2  0  0  0  0
M  END
>  <InstanceId>
2JDS_L20_A_1351

>  <ChemCompId>
L20

>  <PdbId>
2JDS

>  <ChainId>
A

>  <ResidueNumber>
1351

>  <InsertionCode>


>  <Model>
1

>  <AltIds>


>  <MissingHeavyAtoms>
0

>  <ObservedFormula>
C24 N5 O

>  <Name>
(2S)-1-(1H-INDOL-3-YL)-3-{[5-(3-METHYL-1H-INDAZOL-5-YL)PYRIDIN-3-YL]OXY}PROPAN-2-AMINE

>  <SystematicName>
(2S)-1-(1H-indol-3-yl)-3-[5-(3-methyl-1H-indazol-5-yl)pyridin-3-yl]oxy-propan-2-amine

>  <Synonyms>


>  <Type>
NON-POLYMER

>  <Formula>
C24 H23 N5 O

>  <MolecularWeight>
397.472

>  <ModifiedDate>
2011-06-04

>  <Parent>


>  <OneLetterCode>


>  <SubcomponentList>


>  <AmbiguousFlag>


>  <InChI>
InChI=1S/C24H23N5O/c1-15-22-10-16(6-7-24(22)29-28-15)17-9-20(13-26-11-17)30-14-19(25)8-18-12-27-23-5-3-2-4-21(18)23/h2-7,9-13,19,27H,8,14,25H2,1H3,(H,28,29)/t19-/m0/s1

>  <InChIKey>
YWTBGJGMTBHQTM-IBGZPJMESA-N

>  <SMILES>
Cc1c2cc(ccc2[nH]n1)c3cc(cnc3)OC[C@H](Cc4c[nH]c5c4cccc5)N

$$$$
