1WC1_TAT_A_1500
  RCSB PDB08012016173D
Coordinates from PDB:1WC1:A:1500 Model:1 without hydrogens
 31 33  0  0  0  0            999 V2000
   30.3290   39.8270  146.8520   N 0  0  0  0  0  0  0  0  0  0  0  0
   31.2690   39.1200  146.0780   C 0  0  0  0  0  0  0  0  0  0  0  0
   32.5910   39.0990  146.2240   N 0  0  0  0  0  0  0  0  0  0  0  0
   32.9980   39.8980  147.2740   C 0  0  0  0  0  0  0  0  0  0  0  0
   32.1850   40.6780  148.1440   C 0  0  0  0  0  0  0  0  0  0  0  0
   30.7970   40.6240  147.9190   C 0  0  0  0  0  0  0  0  0  0  0  0
   29.9170   41.2860  148.6600   N 0  0  0  0  0  0  0  0  0  0  0  0
   32.9070   41.3290  149.0440   N 0  0  0  0  0  0  0  0  0  0  0  0
   34.1800   40.9640  148.7480   C 0  0  0  0  0  0  0  0  0  0  0  0
   34.2760   40.1110  147.7010   N 0  0  0  0  0  0  0  0  0  0  0  0
   36.7350   44.1400  147.8650   P 0  0  0  0  0  0  0  0  0  0  0  0
   39.1140   45.4850  147.1780   P 0  0  0  0  0  0  0  0  0  0  0  0
   40.5190   47.8320  147.9490   P 0  0  0  0  0  0  0  0  0  0  0  0
   35.5110   39.4850  147.0970   C 0  0  0  0  0  0  0  0  0  0  0  0
   41.6640   47.8270  146.9750   O 0  0  0  0  0  0  0  0  0  0  0  0
   38.4190   46.3790  146.1660   O 0  0  0  0  0  0  0  0  0  0  0  0
   35.3260   45.0220  148.9590   S 0  0  0  0  0  0  0  0  0  0  0  0
   35.7580   39.9830  145.6720   C 0  0  0  0  0  0  0  0  0  0  0  0
   36.4480   39.0200  144.8700   O 0  0  0  0  0  0  0  0  0  0  0  0
   36.4220   44.2340  146.3540   O 0  0  0  0  0  0  0  0  0  0  0  0
   39.9460   44.4050  146.4510   O 0  0  0  0  0  0  0  0  0  0  0  0
   39.3960   48.7200  147.4920   O 0  0  0  0  0  0  0  0  0  0  0  0
   36.6170   41.1570  145.8390   C 0  0  0  0  0  0  0  0  0  0  0  0
   37.3390   41.4990  144.6490   O 0  0  0  0  0  0  0  0  0  0  0  0
   38.1040   44.8250  148.2230   O 0  0  0  0  0  0  0  0  0  0  0  0
   40.0710   46.3350  148.1050   O 0  0  0  0  0  0  0  0  0  0  0  0
   41.0350   48.2910  149.2890   O 0  0  0  0  0  0  0  0  0  0  0  0
   37.5420   40.7210  146.9720   C 0  0  0  0  0  0  0  0  0  0  0  0
   36.6960   39.8850  147.8570   O 0  0  0  0  0  0  0  0  0  0  0  0
   38.0320   41.8880  147.7770   C 0  0  0  0  0  0  0  0  0  0  0  0
   36.9100   42.6540  148.2900   O 0  0  0  0  0  0  0  0  0  0  0  0
  2  1  2  0  0  0  0
  2  3  1  0  0  0  0
  1  6  1  0  0  0  0
  3  4  2  0  0  0  0
 19 18  1  0  0  0  0
 24 23  1  0  0  0  0
  6  7  1  0  0  0  0
  6  5  2  0  0  0  0
  4  5  1  0  0  0  0
  4 10  1  0  0  0  0
  5  8  1  0  0  0  0
 14 10  1  0  0  0  0
 14 18  1  0  0  0  0
 14 29  1  0  0  0  0
 10  9  1  0  0  0  0
 18 23  1  0  0  0  0
  8  9  2  0  0  0  0
 23 28  1  0  0  0  0
 29 28  1  0  0  0  0
 28 30  1  0  0  0  0
 20 11  2  0  0  0  0
 30 31  1  0  0  0  0
 31 11  1  0  0  0  0
 11 25  1  0  0  0  0
 11 17  1  0  0  0  0
 25 12  1  0  0  0  0
 16 12  2  0  0  0  0
 12 26  1  0  0  0  0
 12 21  1  0  0  0  0
 26 13  1  0  0  0  0
 22 13  2  0  0  0  0
 15 13  1  0  0  0  0
 13 27  1  0  0  0  0
M  END
>  <InstanceId>
1WC1_TAT_A_1500

>  <ChemCompId>
TAT

>  <PdbId>
1WC1

>  <ChainId>
A

>  <ResidueNumber>
1500

>  <InsertionCode>


>  <Model>
1

>  <AltIds>


>  <MissingHeavyAtoms>
0

>  <ObservedFormula>
C10 N5 O12 P3 S

>  <Name>
ADENOSINE-5'-RP-ALPHA-THIO-TRIPHOSPHATE

>  <SystematicName>
[[(2R,3S,4R,5R)-5-(6-aminopurin-9-yl)-3,4-bis(oxidanyl)oxolan-2-yl]methoxy-sulfanyl-phosphoryl] phosphono hydrogen phosphate

>  <Synonyms>


>  <Type>
NON-POLYMER

>  <Formula>
C10 H16 N5 O12 P3 S

>  <MolecularWeight>
523.247

>  <ModifiedDate>
2012-01-25

>  <Parent>


>  <OneLetterCode>


>  <SubcomponentList>


>  <AmbiguousFlag>
N

>  <InChI>
InChI=1S/C10H16N5O12P3S/c11-8-5-9(13-2-12-8)15(3-14-5)10-7(17)6(16)4(25-10)1-24-30(23,31)27-29(21,22)26-28(18,19)20/h2-4,6-7,10,16-17H,1H2,(H,21,22)(H,23,31)(H2,11,12,13)(H2,18,19,20)/t4-,6-,7-,10-,30-/m1/s1

>  <InChIKey>
ROYJKVPBJVNHCQ-AJBXOXQOSA-N

>  <SMILES>
c1nc(c2c(n1)n(cn2)[C@H]3[C@@H]([C@@H]([C@H](O3)CO[P@](=O)(OP(=O)(O)OP(=O)(O)O)S)O)O)N

$$$$
