1YPJ_UIB_H_5555
  RCSB PDB08012016283D
Coordinates from PDB:1YPJ:H:5555 Model:1 without hydrogens
 33 37  0  0  0  0            999 V2000
   10.7290  -11.8010   24.3240   N 0  0  0  0  0  0  0  0  0  0  0  0
   11.4620  -10.7700   23.8820   C 0  0  0  0  0  0  0  0  0  0  0  0
   11.0720   -9.5970   24.4620   N 0  0  0  0  0  0  0  0  0  0  0  0
   12.5100  -10.9090   22.9150   C 0  0  0  0  0  0  0  0  0  0  0  0
   13.2720   -9.8170   22.4530   C 0  0  0  0  0  0  0  0  0  0  0  0
   14.2890   -9.9680   21.5290   C 0  0  0  0  0  0  0  0  0  0  0  0
   14.6190  -11.2340   20.9920   C 0  0  0  0  0  0  0  0  0  0  0  0
   15.6990  -11.3800   19.9560   C 0  0  0  0  0  0  0  0  0  0  0  0
   17.1830  -11.5280   20.3580   C 0  0  0  0  0  0  0  0  0  0  0  0
   17.8840  -12.0380   19.0830   C 0  0  0  0  0  0  0  0  0  0  0  0
   16.7300  -12.6320   18.2390   C 0  0  0  0  0  0  0  0  0  0  0  0
   16.9380  -14.1140   17.8350   C 0  0  0  0  0  0  0  0  0  0  0  0
   16.7210  -11.7930   16.9430   C 0  0  0  0  0  0  0  0  0  0  0  0
   15.4930  -12.4940   19.0230   N 0  0  0  0  0  0  0  0  0  0  0  0
   14.2700  -12.3660   18.2020   C 0  0  0  0  0  0  0  0  0  0  0  0
   18.9360  -13.0570   19.5920   C 0  0  0  0  0  0  0  0  0  0  0  0
   18.5190  -13.3720   20.9510   N 0  0  0  0  0  0  0  0  0  0  0  0
   19.0410  -14.5060   21.7870   C 0  0  0  0  0  0  0  0  0  0  0  0
   20.0430  -14.0770   22.8530   C 0  0  0  0  0  0  0  0  0  0  0  0
   19.5990  -13.6360   24.1380   C 0  0  0  0  0  0  0  0  0  0  0  0
   20.4930  -13.3270   25.1870   C 0  0  0  0  0  0  0  0  0  0  0  0
   21.8550  -13.4770   24.8710   C 0  0  0  0  0  0  0  0  0  0  0  0
   22.3080  -13.9030   23.6100   C 0  0  0  0  0  0  0  0  0  0  0  0
   21.4120  -14.2160   22.5680   C 0  0  0  0  0  0  0  0  0  0  0  0
   23.7000  -13.9730   23.5350   O 0  0  0  0  0  0  0  0  0  0  0  0
   24.1030  -13.5500   24.8690   C 0  0  0  0  0  0  0  0  0  0  0  0
   22.9300  -13.2350   25.6950   O 0  0  0  0  0  0  0  0  0  0  0  0
   17.4350  -12.6540   21.3730   C 0  0  0  0  0  0  0  0  0  0  0  0
   16.8700  -12.7620   22.4930   O 0  0  0  0  0  0  0  0  0  0  0  0
   20.3330  -12.4110   19.6630   C 0  0  0  0  0  0  0  0  0  0  0  0
   20.8750  -12.2520   18.2290   C 0  0  0  0  0  0  0  0  0  0  0  0
   13.8890  -12.3290   21.4710   C 0  0  0  0  0  0  0  0  0  0  0  0
   12.8400  -12.1640   22.3880   C 0  0  0  0  0  0  0  0  0  0  0  0
  1  2  1  0  0  0  0
  2  3  2  0  0  0  0
  2  4  1  0  0  0  0
  4  5  1  0  0  0  0
  4 33  2  0  0  0  0
  5  6  2  0  0  0  0
  6  7  1  0  0  0  0
  7  8  1  0  0  0  0
  7 32  2  0  0  0  0
  8  9  1  0  0  0  0
  8 14  1  0  0  0  0
  9 10  1  0  0  0  0
  9 28  1  0  0  0  0
 10 11  1  0  0  0  0
 10 16  1  0  0  0  0
 11 12  1  0  0  0  0
 11 13  1  0  0  0  0
 11 14  1  0  0  0  0
 14 15  1  0  0  0  0
 16 17  1  0  0  0  0
 16 30  1  0  0  0  0
 17 18  1  0  0  0  0
 17 28  1  0  0  0  0
 18 19  1  0  0  0  0
 19 20  1  0  0  0  0
 19 24  2  0  0  0  0
 20 21  2  0  0  0  0
 21 22  1  0  0  0  0
 22 23  2  0  0  0  0
 22 27  1  0  0  0  0
 23 24  1  0  0  0  0
 23 25  1  0  0  0  0
 25 26  1  0  0  0  0
 26 27  1  0  0  0  0
 28 29  2  0  0  0  0
 30 31  1  0  0  0  0
 32 33  1  0  0  0  0
M  END
>  <InstanceId>
1YPJ_UIB_H_5555

>  <ChemCompId>
UIB

>  <PdbId>
1YPJ

>  <ChainId>
H

>  <ResidueNumber>
5555

>  <InsertionCode>


>  <Model>
1

>  <AltIds>


>  <MissingHeavyAtoms>
0

>  <ObservedFormula>
C26 N4 O3

>  <Name>
(1R,3AS,4R,8AS,8BR)-4-{5-(PHENYL[1,3]DIOXOL-5-YLMETHYL)-4-ETHYL-2,3,3-TRIMETHYL-6-OXO-OCTAHYDRO-PYRROLO[3,4-C]PYRROL-1-YL}-BENZAMIDINE

>  <SystematicName>
4-[(1R,2R,3aS,4R,6aS)-5-(1,3-benzodioxol-5-ylmethyl)-4-ethyl-2,3,3-trimethyl-6-oxo-1,3a,4,6a-tetrahydropyrrolo[4,3-c]pyrrol-1-yl]benzenecarboximidamide

>  <Synonyms>


>  <Type>
NON-POLYMER

>  <Formula>
C26 H32 N4 O3

>  <MolecularWeight>
448.557

>  <ModifiedDate>
2011-06-04

>  <Parent>


>  <OneLetterCode>


>  <SubcomponentList>


>  <AmbiguousFlag>
N

>  <InChI>
InChI=1S/C26H32N4O3/c1-5-18-22-21(25(31)30(18)13-15-6-11-19-20(12-15)33-14-32-19)23(29(4)26(22,2)3)16-7-9-17(10-8-16)24(27)28/h6-12,18,21-23H,5,13-14H2,1-4H3,(H3,27,28)/t18-,21+,22-,23+/m1/s1

>  <InChIKey>
HQVPEQYGMUJQHM-MSYGRNIXSA-N

>  <SMILES>
CC[C@@H]1[C@@H]2[C@@H]([C@@H]([N@](C2(C)C)C)c3ccc(cc3)C(=N)N)C(=O)N1Cc4ccc5c(c4)OCO5

$$$$
