3G0E_B49_A_9000
  RCSB PDB08012019043D
Coordinates from PDB:3G0E:A:9000 Model:1 without hydrogens
 22 24  0  0  0  0            999 V2000
   30.4310   -1.0870  -77.3110   C 0  0  0  0  0  0  0  0  0  0  0  0
   36.7490   -8.2550  -79.3610   C 0  0  0  0  0  0  0  0  0  0  0  0
   35.3630   -8.3330  -79.0510   C 0  0  0  0  0  0  0  0  0  0  0  0
   36.7290   -5.7850  -79.0920   C 0  0  0  0  0  0  0  0  0  0  0  0
   34.1100   -1.0460  -78.0240   C 0  0  0  0  0  0  0  0  0  0  0  0
   37.4160   -6.9940  -79.3790   C 0  0  0  0  0  0  0  0  0  0  0  0
   35.3420   -5.8670  -78.7840   C 0  0  0  0  0  0  0  0  0  0  0  0
   34.2960   -4.8670  -78.4420   C 0  0  0  0  0  0  0  0  0  0  0  0
   33.0150   -5.6470  -78.2330   C 0  0  0  0  0  0  0  0  0  0  0  0
   32.8040    1.1740  -77.5610   C 0  0  0  0  0  0  0  0  0  0  0  0
   35.4800   -0.4750  -78.2400   C 0  0  0  0  0  0  0  0  0  0  0  0
   34.5760   -3.5460  -78.3710   C 0  0  0  0  0  0  0  0  0  0  0  0
   31.8840   -1.2200  -77.6050   C 0  0  0  0  0  0  0  0  0  0  0  0
   34.6920   -7.1320  -78.7700   C 0  0  0  0  0  0  0  0  0  0  0  0
   33.7640   -2.3980  -78.0890   C 0  0  0  0  0  0  0  0  0  0  0  0
   32.9100   -0.2910  -77.7180   C 0  0  0  0  0  0  0  0  0  0  0  0
   32.4170   -2.4670  -77.8280   N 0  0  0  0  0  0  0  0  0  0  0  0
   33.3450   -6.9850  -78.4480   N 0  0  0  0  0  0  0  0  0  0  0  0
   33.7330    1.7470  -76.7100   N 0  0  0  0  0  0  0  0  0  0  0  0
   31.9230   -5.2050  -77.9410   O 0  0  0  0  0  0  0  0  0  0  0  0
   31.9360    1.8230  -78.1530   O 0  0  0  0  0  0  0  0  0  0  0  0
   38.7250   -6.9540  -79.6720   F 0  0  0  0  0  0  0  0  0  0  0  0
  1 13  1  0  0  0  0
  2  3  2  0  0  0  0
  2  6  1  0  0  0  0
  3 14  1  0  0  0  0
  4  6  2  0  0  0  0
  4  7  1  0  0  0  0
  5 11  1  0  0  0  0
  5 15  2  0  0  0  0
  5 16  1  0  0  0  0
  6 22  1  0  0  0  0
  7  8  1  0  0  0  0
  7 14  2  0  0  0  0
  8  9  1  0  0  0  0
  8 12  2  0  0  0  0
  9 18  1  0  0  0  0
  9 20  2  0  0  0  0
 10 16  1  0  0  0  0
 10 19  1  0  0  0  0
 10 21  2  0  0  0  0
 12 15  1  0  0  0  0
 13 16  2  0  0  0  0
 13 17  1  0  0  0  0
 14 18  1  0  0  0  0
 15 17  1  0  0  0  0
M  END
>  <InstanceId>
3G0E_B49_A_9000

>  <ChemCompId>
B49

>  <PdbId>
3G0E

>  <ChainId>
A

>  <ResidueNumber>
9000

>  <InsertionCode>


>  <Model>
1

>  <AltIds>


>  <MissingHeavyAtoms>
7

>  <ObservedFormula>
C16 N3 O2 F

>  <Name>
N-[2-(diethylamino)ethyl]-5-[(Z)-(5-fluoro-2-oxo-1,2-dihydro-3H-indol-3-ylidene)methyl]-2,4-dimethyl-1H-pyrrole-3-carbo xamide

>  <SystematicName>
N-(2-diethylaminoethyl)-5-[(Z)-(5-fluoranyl-2-oxidanylidene-1H-indol-3-ylidene)methyl]-2,4-dimethyl-1H-pyrrole-3-carboxamide

>  <Synonyms>
SUNITINIB

>  <Type>
NON-POLYMER

>  <Formula>
C22 H27 F N4 O2

>  <MolecularWeight>
398.474

>  <ModifiedDate>
2020-06-17

>  <Parent>


>  <OneLetterCode>


>  <SubcomponentList>


>  <AmbiguousFlag>
N

>  <InChI>
InChI=1S/C22H27FN4O2/c1-5-27(6-2)10-9-24-22(29)20-13(3)19(25-14(20)4)12-17-16-11-15(23)7-8-18(16)26-21(17)28/h7-8,11-12,25H,5-6,9-10H2,1-4H3,(H,24,29)(H,26,28)/b17-12-

>  <InChIKey>
WINHZLLDWRZWRT-ATVHPVEESA-N

>  <SMILES>
CCN(CC)CCNC(=O)c1c(c([nH]c1C)/C=C\2/c3cc(ccc3NC2=O)F)C

$$$$
