1T7J_478_A_200
  RCSB PDB08012015593D
Coordinates from PDB:1T7J:A:200 Model:1 without hydrogens
 35 37  0  0  0  0            999 V2000
    2.0070    2.8160   10.6350   C 0  0  0  0  0  0  0  0  0  0  0  0
    0.8200    1.0250   11.7420   C 0  0  0  0  0  0  0  0  0  0  0  0
    3.8250    0.0930   12.5250   C 0  0  0  0  0  0  0  0  0  0  0  0
    2.1690    1.3590   11.0980   C 0  0  0  0  0  0  0  0  0  0  0  0
    5.6950   -0.3110   14.1440   C 0  0  0  0  0  0  0  0  0  0  0  0
    5.1670   -0.6860   15.6050   C 0  0  0  0  0  0  0  0  0  0  0  0
    7.0620    0.5200   13.9940   C 0  0  0  0  0  0  0  0  0  0  0  0
    7.3880    0.7970   12.5500   C 0  0  0  0  0  0  0  0  0  0  0  0
    6.9640    2.0730   11.9750   C 0  0  0  0  0  0  0  0  0  0  0  0
    8.0970   -0.1760   11.7170   C 0  0  0  0  0  0  0  0  0  0  0  0
    7.2260    2.4040   10.5840   C 0  0  0  0  0  0  0  0  0  0  0  0
    8.3640    0.1660   10.3110   C 0  0  0  0  0  0  0  0  0  0  0  0
    7.9270    1.4630    9.7350   C 0  0  0  0  0  0  0  0  0  0  0  0
    5.7570   -1.8560   16.5500   C 0  0  0  0  0  0  0  0  0  0  0  0
    4.5660   -4.2700   16.2250   C 0  0  0  0  0  0  0  0  0  0  0  0
    3.1960   -3.7610   15.8200   C 0  0  0  0  0  0  0  0  0  0  0  0
    8.3160   -4.4280   15.8090   C 0  0  0  0  0  0  0  0  0  0  0  0
    9.5320   -3.6980   16.1420   C 0  0  0  0  0  0  0  0  0  0  0  0
   10.5500   -4.3460   16.9460   C 0  0  0  0  0  0  0  0  0  0  0  0
   10.3240   -5.7010   17.3960   C 0  0  0  0  0  0  0  0  0  0  0  0
    9.1400   -6.4040   17.0650   C 0  0  0  0  0  0  0  0  0  0  0  0
    8.1380   -5.7630   16.2730   C 0  0  0  0  0  0  0  0  0  0  0  0
    2.5440   -2.8560   16.8570   C 0  0  0  0  0  0  0  0  0  0  0  0
    3.1160   -3.1640   14.3910   C 0  0  0  0  0  0  0  0  0  0  0  0
   -0.0280    2.2940   11.6190   C 0  0  0  0  0  0  0  0  0  0  0  0
    4.6550    0.4610   13.4810   N 0  0  0  0  0  0  0  0  0  0  0  0
    5.8650   -3.3370   16.2110   N 0  0  0  0  0  0  0  0  0  0  0  0
   11.2170   -6.3030   18.1240   N 0  0  0  0  0  0  0  0  0  0  0  0
    3.1840    1.2650   12.1090   O 0  0  0  0  0  0  0  0  0  0  0  0
    3.6390   -0.9900   12.1130   O 0  0  0  0  0  0  0  0  0  0  0  0
    5.2800    0.4390   16.4090   O 0  0  0  0  0  0  0  0  0  0  0  0
    7.6060   -2.5810   14.2350   O 0  0  0  0  0  0  0  0  0  0  0  0
    6.6400   -4.7840   14.0200   O 0  0  0  0  0  0  0  0  0  0  0  0
    0.8200    3.3650   11.2580   O 0  0  0  0  0  0  0  0  0  0  0  0
    7.0350   -3.7360   14.9110   S 0  0  0  0  0  0  0  0  0  0  0  0
  1  4  1  0  0  0  0
  1 34  1  0  0  0  0
  2  4  1  0  0  0  0
  2 25  1  0  0  0  0
  3 26  1  0  0  0  0
  3 29  1  0  0  0  0
  3 30  2  0  0  0  0
  4 29  1  0  0  0  0
  5  6  1  0  0  0  0
  5  7  1  0  0  0  0
  5 26  1  0  0  0  0
  6 14  1  0  0  0  0
  6 31  1  0  0  0  0
  7  8  1  0  0  0  0
  8  9  2  0  0  0  0
  8 10  1  0  0  0  0
  9 11  1  0  0  0  0
 10 12  2  0  0  0  0
 11 13  2  0  0  0  0
 12 13  1  0  0  0  0
 14 27  1  0  0  0  0
 15 16  1  0  0  0  0
 15 27  1  0  0  0  0
 16 23  1  0  0  0  0
 16 24  1  0  0  0  0
 17 18  2  0  0  0  0
 17 22  1  0  0  0  0
 17 35  1  0  0  0  0
 18 19  1  0  0  0  0
 19 20  2  0  0  0  0
 20 21  1  0  0  0  0
 20 28  1  0  0  0  0
 21 22  2  0  0  0  0
 25 34  1  0  0  0  0
 27 35  1  0  0  0  0
 32 35  2  0  0  0  0
 33 35  2  0  0  0  0
M  END
>  <InstanceId>
1T7J_478_A_200

>  <ChemCompId>
478

>  <PdbId>
1T7J

>  <ChainId>
A

>  <ResidueNumber>
200

>  <InsertionCode>


>  <Model>
1

>  <AltIds>


>  <MissingHeavyAtoms>
0

>  <ObservedFormula>
C25 N3 O6 S

>  <Name>
{3-[(4-AMINO-BENZENESULFONYL)-ISOBUTYL-AMINO]-1-BENZYL-2-HYDROXY-PROPYL}-CARBAMIC ACID TETRAHYDRO-FURAN-3-YL ESTER

>  <SystematicName>
[(3S)-oxolan-3-yl] N-[(2S,3R)-4-[(4-aminophenyl)sulfonyl-(2-methylpropyl)amino]-3-hydroxy-1-phenyl-butan-2-yl]carbamate

>  <Synonyms>
Amprenavir

>  <Type>
NON-POLYMER

>  <Formula>
C25 H35 N3 O6 S

>  <MolecularWeight>
505.627

>  <ModifiedDate>
2020-06-17

>  <Parent>


>  <OneLetterCode>


>  <SubcomponentList>


>  <AmbiguousFlag>
N

>  <InChI>
InChI=1S/C25H35N3O6S/c1-18(2)15-28(35(31,32)22-10-8-20(26)9-11-22)16-24(29)23(14-19-6-4-3-5-7-19)27-25(30)34-21-12-13-33-17-21/h3-11,18,21,23-24,29H,12-17,26H2,1-2H3,(H,27,30)/t21-,23-,24+/m0/s1

>  <InChIKey>
YMARZQAQMVYCKC-OEMFJLHTSA-N

>  <SMILES>
CC(C)C[N@](C[C@H]([C@H](Cc1ccccc1)NC(=O)O[C@H]2CCOC2)O)S(=O)(=O)c3ccc(cc3)N

$$$$
