4UMC_PEQ_A_1352
  RCSB PDB08012023383D
Coordinates from PDB:4UMC:A:1352 Model:1 without hydrogens
 10  9  0  0  0  0            999 V2000
  -27.2070  -16.0320  -37.7930   C 0  0  0  0  0  0  0  0  0  0  0  0
  -27.5550  -16.9140  -36.9720   O 0  0  0  0  0  0  0  0  0  0  0  0
  -28.0020  -15.2760  -38.4360   O 0  0  0  0  0  0  0  0  0  0  0  0
  -25.6580  -15.9390  -38.0500   C 0  0  0  0  0  0  0  0  0  0  0  0
  -25.2520  -14.9390  -39.1610   C 0  0  0  0  0  0  0  0  0  0  0  0
  -25.1500  -17.2820  -38.3500   O 0  0  0  0  0  0  0  0  0  0  0  0
  -23.5420  -17.7070  -38.5790   P 0  0  0  0  0  0  0  0  0  0  0  0
  -23.4780  -19.3010  -38.5320   O 0  0  0  0  0  0  0  0  0  0  0  0
  -23.2500  -17.2990  -40.1350   O 0  0  0  0  0  0  0  0  0  0  0  0
  -22.6260  -17.1790  -37.5480   O 0  0  0  0  0  0  0  0  0  0  0  0
  1  2  2  0  0  0  0
  1  3  1  0  0  0  0
  1  4  1  0  0  0  0
  4  5  1  0  0  0  0
  4  6  1  0  0  0  0
  6  7  1  0  0  0  0
  7  8  2  0  0  0  0
  7  9  1  0  0  0  0
  7 10  1  0  0  0  0
M  END
>  <InstanceId>
4UMC_PEQ_A_1352

>  <ChemCompId>
PEQ

>  <PdbId>
4UMC

>  <ChainId>
A

>  <ResidueNumber>
1352

>  <InsertionCode>


>  <Model>
1

>  <AltIds>


>  <MissingHeavyAtoms>
0

>  <ObservedFormula>
C3 O6 P

>  <Name>
L-PHOSPHOLACTATE

>  <SystematicName>
(2S)-2-phosphonooxypropanoic acid

>  <Synonyms>


>  <Type>
NON-POLYMER

>  <Formula>
C3 H7 O6 P

>  <MolecularWeight>
170.058

>  <ModifiedDate>
2011-06-04

>  <Parent>


>  <OneLetterCode>


>  <SubcomponentList>


>  <AmbiguousFlag>
N

>  <InChI>
InChI=1S/C3H7O6P/c1-2(3(4)5)9-10(6,7)8/h2H,1H3,(H,4,5)(H2,6,7,8)/t2-/m0/s1

>  <InChIKey>
CSZRNWHGZPKNKY-REOHCLBHSA-N

>  <SMILES>
C[C@@H](C(=O)O)OP(=O)(O)O

$$$$
