5F63_5W2_A_201
  RCSB PDB08022001193D
Coordinates from PDB:5F63:A:201 Model:1 without hydrogens
 41 44  0  0  0  0            999 V2000
    8.3940   -7.4130   -0.0420   C 0  0  0  0  0  0  0  0  0  0  0  0
   10.4780   -6.1660   -0.1050   C 0  0  0  0  0  0  0  0  0  0  0  0
   12.6820   -5.1760    0.2330   C 0  0  0  0  0  0  0  0  0  0  0  0
   14.7690   -4.0090    0.4880   C 0  0  0  0  0  0  0  0  0  0  0  0
   14.5900   -5.7590   -1.0670   C 0  0  0  0  0  0  0  0  0  0  0  0
   14.6270   -7.6000   -2.7230   C 0  0  0  0  0  0  0  0  0  0  0  0
   13.0420   -9.4010   -3.1850   C 0  0  0  0  0  0  0  0  0  0  0  0
   13.8930   -9.8640   -4.2510   C 0  0  0  0  0  0  0  0  0  0  0  0
    7.3570   -8.6970   -2.1620  Cl 0  0  0  0  0  0  0  0  0  0  0  0
    8.5610   -7.7510   -1.4000   C 0  0  0  0  0  0  0  0  0  0  0  0
    9.6760   -7.2800   -2.1250   C 0  0  0  0  0  0  0  0  0  0  0  0
    9.8070   -7.6180   -3.4410   N 0  0  0  0  0  0  0  0  0  0  0  0
   10.3680   -6.6260   -4.6840   S 0  0  0  0  0  0  0  0  0  0  0  0
    9.0210   -5.5100   -5.1680   C 0  0  0  0  0  0  0  0  0  0  0  0
    7.8240   -6.3890   -5.6120   C 0  0  0  0  0  0  0  0  0  0  0  0
    9.5630   -4.6600   -6.3400   C 0  0  0  0  0  0  0  0  0  0  0  0
    8.6280   -4.6180   -3.9610   C 0  0  0  0  0  0  0  0  0  0  0  0
   10.6710   -7.5900   -5.8730   O 0  0  0  0  0  0  0  0  0  0  0  0
   11.6100   -5.8210   -4.1950   O 0  0  0  0  0  0  0  0  0  0  0  0
   10.6160   -6.4880   -1.4620   C 0  0  0  0  0  0  0  0  0  0  0  0
    9.3560   -6.6350    0.6040   C 0  0  0  0  0  0  0  0  0  0  0  0
   11.3750   -5.3930    0.5750   N 0  0  0  0  0  0  0  0  0  0  0  0
   13.4330   -4.1630    0.8820   C 0  0  0  0  0  0  0  0  0  0  0  0
   12.8940   -3.2640    1.9330   C 0  0  0  0  0  0  0  0  0  0  0  0
   15.2980   -4.7860   -0.4710   N 0  0  0  0  0  0  0  0  0  0  0  0
   15.1160   -6.5280   -2.0460   N 0  0  0  0  0  0  0  0  0  0  0  0
   13.4050   -8.2570   -2.3910   C 0  0  0  0  0  0  0  0  0  0  0  0
   11.9040  -10.0720   -2.9150   F 0  0  0  0  0  0  0  0  0  0  0  0
   13.6000  -11.0210   -5.0690   C 0  0  0  0  0  0  0  0  0  0  0  0
   14.6340  -11.8470   -5.4780   N 0  0  0  0  0  0  0  0  0  0  0  0
   14.6590  -13.1400   -6.1340   C 0  0  0  0  0  0  0  0  0  0  0  0
   13.3850  -13.4970   -6.9520   C 0  0  0  0  0  0  0  0  0  0  0  0
   13.6520  -14.8180   -7.7250   C 0  0  0  0  0  0  0  0  0  0  0  0
   14.0530  -15.9500   -6.8200   N 0  0  0  0  0  0  0  0  0  0  0  0
   14.1170  -17.2860   -7.4860   C 0  0  0  0  0  0  0  0  0  0  0  0
   15.1590  -15.6330   -5.8550   C 0  0  0  0  0  0  0  0  0  0  0  0
   14.9510  -14.2800   -5.1120   C 0  0  0  0  0  0  0  0  0  0  0  0
   12.4050  -11.3670   -5.2120   O 0  0  0  0  0  0  0  0  0  0  0  0
   15.1020   -9.1620   -4.5100   C 0  0  0  0  0  0  0  0  0  0  0  0
   15.5120   -8.0430   -3.7780   C 0  0  0  0  0  0  0  0  0  0  0  0
   13.2960   -5.9470   -0.7060   N 0  0  0  0  0  0  0  0  0  0  0  0
  1 10  2  0  0  0  0
  1 21  1  0  0  0  0
  2 20  1  0  0  0  0
  2 21  2  0  0  0  0
  2 22  1  0  0  0  0
  3 22  1  0  0  0  0
  3 23  2  0  0  0  0
  3 41  1  0  0  0  0
  4 23  1  0  0  0  0
  4 25  2  0  0  0  0
  5 25  1  0  0  0  0
  5 26  1  0  0  0  0
  5 41  2  0  0  0  0
  6 26  1  0  0  0  0
  6 27  2  0  0  0  0
  6 40  1  0  0  0  0
  7  8  2  0  0  0  0
  7 27  1  0  0  0  0
  7 28  1  0  0  0  0
  8 29  1  0  0  0  0
  8 39  1  0  0  0  0
  9 10  1  0  0  0  0
 10 11  1  0  0  0  0
 11 12  1  0  0  0  0
 11 20  2  0  0  0  0
 12 13  1  0  0  0  0
 13 14  1  0  0  0  0
 13 18  2  0  0  0  0
 13 19  2  0  0  0  0
 14 15  1  0  0  0  0
 14 16  1  0  0  0  0
 14 17  1  0  0  0  0
 23 24  1  0  0  0  0
 29 30  1  0  0  0  0
 29 38  2  0  0  0  0
 30 31  1  0  0  0  0
 31 32  1  0  0  0  0
 31 37  1  0  0  0  0
 32 33  1  0  0  0  0
 33 34  1  0  0  0  0
 34 35  1  0  0  0  0
 34 36  1  0  0  0  0
 36 37  1  0  0  0  0
 39 40  2  0  0  0  0
M  END
>  <InstanceId>
5F63_5W2_A_201

>  <ChemCompId>
5W2

>  <PdbId>
5F63

>  <ChainId>
A

>  <ResidueNumber>
201

>  <InsertionCode>


>  <Model>
1

>  <AltIds>


>  <MissingHeavyAtoms>
0

>  <ObservedFormula>
C28 N7 O3 S F Cl

>  <Name>
4-[[4-[[3-(~{tert}-butylsulfonylamino)-4-chloranyl-phenyl]amino]-5-methyl-pyrimidin-2-yl]amino]-2-fluoranyl-~{N}-(1-methylpiperidin-4-yl)benzamide

>  <SystematicName>
4-[[4-[[3-(~{tert}-butylsulfonylamino)-4-chloranyl-phenyl]amino]-5-methyl-pyrimidin-2-yl]amino]-2-fluoranyl-~{N}-(1-methylpiperidin-4-yl)benzamide

>  <Synonyms>


>  <Type>
NON-POLYMER

>  <Formula>
C28 H35 Cl F N7 O3 S

>  <MolecularWeight>
604.139

>  <ModifiedDate>
2017-02-03

>  <Parent>


>  <OneLetterCode>


>  <SubcomponentList>


>  <AmbiguousFlag>
N

>  <InChI>
InChI=1S/C28H35ClFN7O3S/c1-17-16-31-27(34-19-6-8-21(23(30)14-19)26(38)33-18-10-12-37(5)13-11-18)35-25(17)32-20-7-9-22(29)24(15-20)36-41(39,40)28(2,3)4/h6-9,14-16,18,36H,10-13H2,1-5H3,(H,33,38)(H2,31,32,34,35)

>  <InChIKey>
RBZRCEPYYVFROZ-UHFFFAOYSA-N

>  <SMILES>
Cc1cnc(nc1Nc2ccc(c(c2)NS(=O)(=O)C(C)(C)C)Cl)Nc3ccc(c(c3)F)C(=O)NC4CCN(CC4)C

$$$$
