5BYI_4WA_A_303
  RCSB PDB08022000543D
Coordinates from PDB:5BYI:A:303 Model:1 without hydrogens
 19 20  0  0  0  0            999 V2000
   13.6730    1.7870   16.6410   O 0  0  0  0  0  0  0  0  0  0  0  0
   15.1050    1.7270   16.7850   S 0  0  0  0  0  0  0  0  0  0  0  0
   15.6600    1.8270   18.1190   O 0  0  0  0  0  0  0  0  0  0  0  0
   15.6920    0.4190   16.0650   N 0  0  0  0  0  0  0  0  0  0  0  0
   15.7450    3.1170   15.9070   C 0  0  0  0  0  0  0  0  0  0  0  0
   17.1130    3.2290   15.6340   C 0  0  0  0  0  0  0  0  0  0  0  0
   17.6140    4.3680   14.9800   C 0  0  0  0  0  0  0  0  0  0  0  0
   16.7440    5.4110   14.6180   C 0  0  0  0  0  0  0  0  0  0  0  0
   15.3810    5.2920   14.8520   C 0  0  0  0  0  0  0  0  0  0  0  0
   14.8890    4.1580   15.5020   C 0  0  0  0  0  0  0  0  0  0  0  0
   17.1760    6.5440   14.0220   N 0  0  0  0  0  0  0  0  0  0  0  0
   18.4370    6.5720   13.5390   N 0  0  0  0  0  0  0  0  0  0  0  0
   19.2120    7.6800   13.5760   C 0  0  0  0  0  0  0  0  0  0  0  0
   19.0380    8.7390   14.4850   C 0  0  0  0  0  0  0  0  0  0  0  0
   19.8980    9.8540   14.4660   C 0  0  0  0  0  0  0  0  0  0  0  0
   20.9510    9.9040   13.5380   C 0  0  0  0  0  0  0  0  0  0  0  0
   21.8220   11.0200   13.5040   N 0  0  0  0  0  0  0  0  0  0  0  0
   21.1270    8.8420   12.6340   C 0  0  0  0  0  0  0  0  0  0  0  0
   20.2660    7.7350   12.6620   C 0  0  0  0  0  0  0  0  0  0  0  0
 18 19  2  0  0  0  0
 18 16  1  0  0  0  0
 19 13  1  0  0  0  0
 17 16  1  0  0  0  0
 16 15  2  0  0  0  0
 12 13  1  0  0  0  0
 12 11  2  0  0  0  0
 13 14  2  0  0  0  0
 11  8  1  0  0  0  0
 15 14  1  0  0  0  0
  8  9  2  0  0  0  0
  8  7  1  0  0  0  0
  9 10  1  0  0  0  0
  7  6  2  0  0  0  0
 10  5  2  0  0  0  0
  6  5  1  0  0  0  0
  5  2  1  0  0  0  0
  4  2  1  0  0  0  0
  1  2  2  0  0  0  0
  2  3  2  0  0  0  0
M  END
>  <InstanceId>
5BYI_4WA_A_303

>  <ChemCompId>
4WA

>  <PdbId>
5BYI

>  <ChainId>
A

>  <ResidueNumber>
303

>  <InsertionCode>


>  <Model>
1

>  <AltIds>


>  <MissingHeavyAtoms>
0

>  <ObservedFormula>
C12 N4 O2 S

>  <Name>
4-[(E)-(4-aminophenyl)diazenyl]benzenesulfonamide

>  <SystematicName>
4-[(4-aminophenyl)diazenyl]benzenesulfonamide

>  <Synonyms>


>  <Type>
NON-POLYMER

>  <Formula>
C12 H12 N4 O2 S

>  <MolecularWeight>
276.314

>  <ModifiedDate>
2015-07-31

>  <Parent>


>  <OneLetterCode>


>  <SubcomponentList>


>  <AmbiguousFlag>
N

>  <InChI>
InChI=1S/C12H12N4O2S/c13-9-1-3-10(4-2-9)15-16-11-5-7-12(8-6-11)19(14,17)18/h1-8H,13H2,(H2,14,17,18)/b16-15+

>  <InChIKey>
JSHXITVMUADQEA-FOCLMDBBSA-N

>  <SMILES>
c1cc(ccc1N)N=Nc2ccc(cc2)S(=O)(=O)N

$$$$
