4A6C_QG9_B_1200
  RCSB PDB08012021043D
Coordinates from PDB:4A6C:B:1200 Model:1 without hydrogens
 54 59  0  0  0  0            999 V2000
   10.7320   24.3680    6.1060   C 0  0  0  0  0  0  0  0  0  0  0  0
   10.5130   23.3840    6.8300   O 0  0  0  0  0  0  0  0  0  0  0  0
   11.9630   26.0240    4.9070   C 0  0  0  0  0  0  0  0  0  0  0  0
   10.5140   26.3540    5.0220   C 0  0  0  0  0  0  0  0  0  0  0  0
    9.9160   25.4100    5.9350   N 0  0  0  0  0  0  0  0  0  0  0  0
    8.5990   25.6310    6.5670   C 0  0  0  0  0  0  0  0  0  0  0  0
    8.4340   26.8860    7.4080   C 0  0  0  0  0  0  0  0  0  0  0  0
    7.0810   27.3170    7.3520   C 0  0  0  0  0  0  0  0  0  0  0  0
    6.2640   26.4010    6.4850   C 0  0  0  0  0  0  0  0  0  0  0  0
    7.3360   25.6980    5.6230   C 0  0  0  0  0  0  0  0  0  0  0  0
    7.4970   26.5270    4.4680   O 0  0  0  0  0  0  0  0  0  0  0  0
    6.6340   28.4960    8.0560   C 0  0  0  0  0  0  0  0  0  0  0  0
    7.6070   29.2440    8.8420   C 0  0  0  0  0  0  0  0  0  0  0  0
    9.0010   28.8080    8.9060   C 0  0  0  0  0  0  0  0  0  0  0  0
    9.4290   27.6190    8.1900   C 0  0  0  0  0  0  0  0  0  0  0  0
   12.5660   26.9050    5.8200   O 0  0  0  0  0  0  0  0  0  0  0  0
   14.6380   24.4000    5.6370   C 0  0  0  0  0  0  0  0  0  0  0  0
   15.7440   24.1370    6.6190   C 0  0  0  0  0  0  0  0  0  0  0  0
   12.0790   23.4740    3.9710   C 0  0  0  0  0  0  0  0  0  0  0  0
   10.8350   23.6470    2.9730   C 0  0  0  0  0  0  0  0  0  0  0  0
   10.4760   24.6140    1.9390   C 0  0  0  0  0  0  0  0  0  0  0  0
    9.2520   24.4940    1.1880   C 0  0  0  0  0  0  0  0  0  0  0  0
    8.3500   23.3960    1.4560   C 0  0  0  0  0  0  0  0  0  0  0  0
    8.6830   22.4190    2.4790   C 0  0  0  0  0  0  0  0  0  0  0  0
    9.9110   22.5350    3.2350   C 0  0  0  0  0  0  0  0  0  0  0  0
   17.1980   17.5490   11.0130   C 0  0  0  0  0  0  0  0  0  0  0  0
   17.0830   18.9050   10.3180   C 0  0  0  0  0  0  0  0  0  0  0  0
   18.2770   19.6290    9.8550   C 0  0  0  0  0  0  0  0  0  0  0  0
   18.1860   20.9160    9.1950   C 0  0  0  0  0  0  0  0  0  0  0  0
   16.9020   21.5310    8.9740   C 0  0  0  0  0  0  0  0  0  0  0  0
   15.6930   20.8540    9.4160   C 0  0  0  0  0  0  0  0  0  0  0  0
   15.7810   19.5580   10.0790   C 0  0  0  0  0  0  0  0  0  0  0  0
   16.7070   22.7770    8.3390   C 0  0  0  0  0  0  0  0  0  0  0  0
   15.8020   22.7940    7.1660   N 0  0  0  0  0  0  0  0  0  0  0  0
   16.2440   21.8850    6.1970   N 0  0  0  0  0  0  0  0  0  0  0  0
   15.5070   20.8670    5.7160   C 0  0  0  0  0  0  0  0  0  0  0  0
   16.2930   20.0420    4.6950   C 0  0  0  0  0  0  0  0  0  0  0  0
   17.0760   19.1570    5.5950   N 0  0  0  0  0  0  0  0  0  0  0  0
   18.4560   19.2700    5.7740   C 0  0  0  0  0  0  0  0  0  0  0  0
   18.8770   18.3410    6.6620   O 0  0  0  0  0  0  0  0  0  0  0  0
   20.2620   18.2660    7.0120   C 0  0  0  0  0  0  0  0  0  0  0  0
   19.1680   20.1050    5.2010   O 0  0  0  0  0  0  0  0  0  0  0  0
   15.5340   19.2240    3.5680   C 0  0  0  0  0  0  0  0  0  0  0  0
   14.5750   18.1420    4.1210   C 0  0  0  0  0  0  0  0  0  0  0  0
   14.7430   20.1960    2.6610   C 0  0  0  0  0  0  0  0  0  0  0  0
   16.5590   18.4930    2.6520   C 0  0  0  0  0  0  0  0  0  0  0  0
   14.3460   20.6210    6.0770   O 0  0  0  0  0  0  0  0  0  0  0  0
   18.5010   17.0180   11.1900   C 0  0  0  0  0  0  0  0  0  0  0  0
   18.6880   15.7870   11.8160   C 0  0  0  0  0  0  0  0  0  0  0  0
   17.5780   15.0050   12.3040   N 0  0  0  0  0  0  0  0  0  0  0  0
   16.2300   15.5230   12.1360   C 0  0  0  0  0  0  0  0  0  0  0  0
   12.0240   24.4970    5.2620   C 0  0  0  0  0  0  0  0  0  0  0  0
   16.0320   16.7960   11.4870   C 0  0  0  0  0  0  0  0  0  0  0  0
   13.2130   24.2100    6.2240   C 0  0  0  0  0  0  0  0  0  0  0  0
  1  2  2  0  0  0  0
  1  5  1  0  0  0  0
  1 52  1  0  0  0  0
  3  4  1  0  0  0  0
  3 16  1  0  0  0  0
  3 52  1  0  0  0  0
  4  5  1  0  0  0  0
  5  6  1  0  0  0  0
  6  7  1  0  0  0  0
  6 10  1  0  0  0  0
  7  8  1  0  0  0  0
  7 15  2  0  0  0  0
  8  9  1  0  0  0  0
  8 12  2  0  0  0  0
  9 10  1  0  0  0  0
 10 11  1  0  0  0  0
 12 13  1  0  0  0  0
 13 14  2  0  0  0  0
 14 15  1  0  0  0  0
 17 18  1  0  0  0  0
 17 54  1  0  0  0  0
 18 34  1  0  0  0  0
 19 20  1  0  0  0  0
 19 52  1  0  0  0  0
 20 25  2  0  0  0  0
 20 21  1  0  0  0  0
 25 24  1  0  0  0  0
 24 23  2  0  0  0  0
 23 22  1  0  0  0  0
 22 21  2  0  0  0  0
 26 27  1  0  0  0  0
 26 53  1  0  0  0  0
 26 48  2  0  0  0  0
 27 28  1  0  0  0  0
 27 32  2  0  0  0  0
 28 29  2  0  0  0  0
 29 30  1  0  0  0  0
 30 31  2  0  0  0  0
 30 33  1  0  0  0  0
 31 32  1  0  0  0  0
 33 34  1  0  0  0  0
 34 35  1  0  0  0  0
 35 36  1  0  0  0  0
 36 37  1  0  0  0  0
 36 47  2  0  0  0  0
 37 38  1  0  0  0  0
 37 43  1  0  0  0  0
 38 39  1  0  0  0  0
 39 40  1  0  0  0  0
 39 42  2  0  0  0  0
 40 41  1  0  0  0  0
 43 44  1  0  0  0  0
 43 45  1  0  0  0  0
 43 46  1  0  0  0  0
 53 51  2  0  0  0  0
 51 50  1  0  0  0  0
 50 49  2  0  0  0  0
 49 48  1  0  0  0  0
 52 54  1  0  0  0  0
M  END
>  <InstanceId>
4A6C_QG9_B_1200

>  <ChemCompId>
QG9

>  <PdbId>
4A6C

>  <ChainId>
B

>  <ResidueNumber>
1200

>  <InsertionCode>


>  <Model>
1

>  <AltIds>


>  <MissingHeavyAtoms>
0

>  <ObservedFormula>
C43 N5 O6

>  <Name>
METHYL ((S)-1-(2-(3-((3S,4S)-3-BENZYL-4-HYDROXY-1-((1S,2R)-2-HYDROXY-2,3-DIHYDRO-1H-INDEN-1-YL)-2-OXOPYRROLIDIN-3-YL)PROPYL)-2-(4-(PYRIDIN-4-YL)BENZYL)HYDRAZINYL)-3,3-DIMETHYL-1-OXOBUTAN-2-YL)CARBAMATE

>  <SystematicName>
methyl N-[(2S)-3,3-dimethyl-1-oxidanylidene-1-[2-[3-[(3S,4S)-4-oxidanyl-1-[(1S,2R)-2-oxidanyl-2,3-dihydro-1H-inden-1-yl]-2-oxidanylidene-3-(phenylmethyl)pyrrolidin-3-yl]propyl]-2-[(4-pyridin-4-ylphenyl)methyl]hydrazinyl]butan-2-yl]carbamate

>  <Synonyms>


>  <Type>
non-polymer

>  <Formula>
C43 H51 N5 O6

>  <MolecularWeight>
733.895

>  <ModifiedDate>
2014-09-05

>  <Parent>


>  <OneLetterCode>


>  <SubcomponentList>


>  <AmbiguousFlag>
N

>  <InChI>
InChI=1S/C43H51N5O6/c1-42(2,3)38(45-41(53)54-4)39(51)46-47(27-30-15-17-31(18-16-30)32-19-22-44-23-20-32)24-10-21-43(26-29-11-6-5-7-12-29)36(50)28-48(40(43)52)37-34-14-9-8-13-33(34)25-35(37)49/h5-9,11-20,22-23,35-38,49-50H,10,21,24-28H2,1-4H3,(H,45,53)(H,46,51)/t35-,36-,37+,38-,43+/m1/s1

>  <InChIKey>
ZKMZXBMNTSRUBW-NPHQGNLKSA-N

>  <SMILES>
CC(C)(C)[C@@H](C(=O)NN(CCC[C@@]1([C@@H](CN(C1=O)[C@H]2c3ccccc3C[C@H]2O)O)Cc4ccccc4)Cc5ccc(cc5)c6ccncc6)NC(=O)OC

$$$$
