6MA3_JAJ_A_1101
  RCSB PDB08022005293D
Coordinates from PDB:6MA3:A:1101 Model:1 without hydrogens
 42 45  0  0  0  0            999 V2000
    2.1330  -43.9540   16.2080   N 0  0  0  0  0  0  0  0  0  0  0  0
    0.9170  -44.5020   16.7600   C 0  0  0  0  0  0  0  0  0  0  0  0
    0.1060  -43.4540   18.8970   C 0  0  0  0  0  0  0  0  0  0  0  0
   -1.8570  -42.1100   18.7940   C 0  0  0  0  0  0  0  0  0  0  0  0
   -2.8290  -39.7460   15.8750   C 0  0  0  0  0  0  0  0  0  0  0  0
    1.1090  -43.9830   21.0120   C 0  0  0  0  0  0  0  0  0  0  0  0
    1.9230  -45.0200   19.0110   C 0  0  0  0  0  0  0  0  0  0  0  0
   -0.0850  -49.1720    9.4470   O 0  0  0  0  0  0  0  0  0  0  0  0
    0.0360  -48.2400   10.1600   C 0  0  0  0  0  0  0  0  0  0  0  0
    1.2820  -48.0750   10.8920   N 0  0  0  0  0  0  0  0  0  0  0  0
    1.4660  -46.8830   11.8170   C 0  0  0  0  0  0  0  0  0  0  0  0
    0.4360  -45.9340   11.9650   C 0  0  0  0  0  0  0  0  0  0  0  0
   -0.8810  -46.0990   11.2000   C 0  0  0  0  0  0  0  0  0  0  0  0
   -1.0610  -47.2500   10.3110   C 0  0  0  0  0  0  0  0  0  0  0  0
    0.6190  -44.8500   12.8230   C 0  0  0  0  0  0  0  0  0  0  0  0
    1.8240  -44.7140   13.5100   C 0  0  0  0  0  0  0  0  0  0  0  0
    2.0620  -43.3190   14.6350   S 0  0  0  0  0  0  0  0  0  0  0  0
    0.9600  -42.3630   14.5090   O 0  0  0  0  0  0  0  0  0  0  0  0
    0.9810  -44.3260   18.2740   C 0  0  0  0  0  0  0  0  0  0  0  0
   -0.8260  -42.7630   18.1120   O 0  0  0  0  0  0  0  0  0  0  0  0
   -2.7120  -41.3790   17.7670   C 0  0  0  0  0  0  0  0  0  0  0  0
   -1.8990  -40.4910   16.8280   C 0  0  0  0  0  0  0  0  0  0  0  0
   -4.0120  -40.1600   15.7300   O 0  0  0  0  0  0  0  0  0  0  0  0
   -2.4310  -38.7240   15.2520   O 0  0  0  0  0  0  0  0  0  0  0  0
    0.1710  -43.2850   20.2720   C 0  0  0  0  0  0  0  0  0  0  0  0
    1.9870  -44.8470   20.3870   C 0  0  0  0  0  0  0  0  0  0  0  0
    0.8160  -45.9860   16.3780   C 0  0  0  0  0  0  0  0  0  0  0  0
   -0.4790  -46.6610   16.3030   N 0  0  0  0  0  0  0  0  0  0  0  0
   -0.5330  -48.0650   15.9260   C 0  0  0  0  0  0  0  0  0  0  0  0
   -0.2160  -48.9650   17.1190   C 0  0  0  0  0  0  0  0  0  0  0  0
   -0.2220  -48.4940   18.2860   O 0  0  0  0  0  0  0  0  0  0  0  0
    0.0600  -50.1780   16.9240   O 0  0  0  0  0  0  0  0  0  0  0  0
   -1.7180  -45.9560   16.5890   C 0  0  0  0  0  0  0  0  0  0  0  0
   -2.4120  -45.4910   15.3120   C 0  0  0  0  0  0  0  0  0  0  0  0
   -2.5390  -44.1700   14.8580   C 0  0  0  0  0  0  0  0  0  0  0  0
   -3.2600  -44.0640   13.6230   C 0  0  0  0  0  0  0  0  0  0  0  0
   -3.7110  -45.2820   13.0980   C 0  0  0  0  0  0  0  0  0  0  0  0
   -3.2030  -46.4710   14.1830   S 0  0  0  0  0  0  0  0  0  0  0  0
    1.8050  -46.5910   16.1350   O 0  0  0  0  0  0  0  0  0  0  0  0
    3.2530  -42.5410   14.2980   O 0  0  0  0  0  0  0  0  0  0  0  0
    2.8540  -45.6590   13.3620   C 0  0  0  0  0  0  0  0  0  0  0  0
    2.6680  -46.7460   12.5130   C 0  0  0  0  0  0  0  0  0  0  0  0
  8  9  2  0  0  0  0
  9 14  1  0  0  0  0
  9 10  1  0  0  0  0
 14 13  2  0  0  0  0
 10 11  1  0  0  0  0
 13 12  1  0  0  0  0
 11 12  2  0  0  0  0
 11 42  1  0  0  0  0
 12 15  1  0  0  0  0
 42 41  2  0  0  0  0
 15 16  2  0  0  0  0
 37 36  2  0  0  0  0
 37 38  1  0  0  0  0
 41 16  1  0  0  0  0
 16 17  1  0  0  0  0
 36 35  1  0  0  0  0
 38 34  1  0  0  0  0
 40 17  2  0  0  0  0
 18 17  2  0  0  0  0
 17  1  1  0  0  0  0
 35 34  2  0  0  0  0
 24  5  2  0  0  0  0
 34 33  1  0  0  0  0
 23  5  1  0  0  0  0
  5 22  1  0  0  0  0
 29 28  1  0  0  0  0
 29 30  1  0  0  0  0
 39 27  2  0  0  0  0
  1  2  1  0  0  0  0
 28 27  1  0  0  0  0
 28 33  1  0  0  0  0
 27  2  1  0  0  0  0
  2 19  1  0  0  0  0
 22 21  1  0  0  0  0
 32 30  2  0  0  0  0
 30 31  1  0  0  0  0
 21  4  1  0  0  0  0
 20  4  1  0  0  0  0
 20  3  1  0  0  0  0
 19  3  2  0  0  0  0
 19  7  1  0  0  0  0
  3 25  1  0  0  0  0
  7 26  2  0  0  0  0
 25  6  2  0  0  0  0
 26  6  1  0  0  0  0
M  END
>  <InstanceId>
6MA3_JAJ_A_1101

>  <ChemCompId>
JAJ

>  <PdbId>
6MA3

>  <ChainId>
A

>  <ResidueNumber>
1101

>  <InsertionCode>


>  <Model>
1

>  <AltIds>


>  <MissingHeavyAtoms>
0

>  <ObservedFormula>
C28 N3 O9 S2

>  <Name>
4-{2-[(1R)-2-{(carboxymethyl)[(thiophen-2-yl)methyl]amino}-2-oxo-1-{[(2-oxo-1,2-dihydroquinolin-6-yl)sulfonyl]amino}ethyl]phenoxy}butanoic acid

>  <SystematicName>
4-[2-[(1~{R})-2-[2-hydroxy-2-oxoethyl(thiophen-2-ylmethyl)amino]-2-oxidanylidene-1-[(2-oxidanylidene-1~{H}-quinolin-6-yl)sulfonylamino]ethyl]phenoxy]butanoic acid

>  <Synonyms>


>  <Type>
NON-POLYMER

>  <Formula>
C28 H27 N3 O9 S2

>  <MolecularWeight>
613.659

>  <ModifiedDate>
2018-10-12

>  <Parent>


>  <OneLetterCode>


>  <SubcomponentList>


>  <AmbiguousFlag>
N

>  <InChI>
InChI=1S/C28H27N3O9S2/c32-24-12-9-18-15-20(10-11-22(18)29-24)42(38,39)30-27(21-6-1-2-7-23(21)40-13-3-8-25(33)34)28(37)31(17-26(35)36)16-19-5-4-14-41-19/h1-2,4-7,9-12,14-15,27,30H,3,8,13,16-17H2,(H,29,32)(H,33,34)(H,35,36)/t27-/m1/s1

>  <InChIKey>
XMWFXIHFGQHVEA-HHHXNRCGSA-N

>  <SMILES>
c1ccc(c(c1)[C@H](C(=O)N(Cc2cccs2)CC(=O)O)NS(=O)(=O)c3ccc4c(c3)C=CC(=O)N4)OCCCC(=O)O

$$$$
