5F1V_3VN_A_301
  RCSB PDB08022001183D
Coordinates from PDB:5F1V:A:301 Model:1 without hydrogens
 22 21  0  0  0  0            999 V2000
   30.8200  -14.3210  -12.2290   N 0  0  0  0  0  0  0  0  0  0  0  0
   31.1320  -13.1930  -13.0620   C 0  0  0  0  0  0  0  0  0  0  0  0
   29.8770  -12.5030  -13.4670   C 0  0  0  0  0  0  0  0  0  0  0  0
   29.9290  -11.3370  -13.9360   O 0  0  0  0  0  0  0  0  0  0  0  0
   28.7670  -13.0800  -13.3310   O 0  0  0  0  0  0  0  0  0  0  0  0
   31.9030  -13.6410  -14.2620   C 0  0  0  0  0  0  0  0  0  0  0  0
   31.1730  -14.3240  -15.3690   C 0  0  0  0  0  0  0  0  0  0  0  0
   31.8500  -15.4580  -16.0650   C 0  0  0  0  0  0  0  0  0  0  0  0
   31.0700  -16.1640  -17.1230   C 0  0  0  0  0  0  0  0  0  0  0  0
   31.4310  -17.5180  -17.4510   N 0  0  0  0  0  0  0  0  0  0  0  0
   31.9460  -12.2160  -12.2850   C 0  0  0  0  0  0  0  0  0  0  0  0
   33.2880  -12.6170  -11.7690   C 0  0  0  0  0  0  0  0  0  0  0  0
   34.0650  -11.5700  -11.0460   C 0  0  0  0  0  0  0  0  0  0  0  0
   33.4710  -11.3310   -9.7610   N 0  0  0  0  0  0  0  0  0  0  0  0
   34.0280  -10.3180  -11.8530   C 0  0  0  0  0  0  0  0  0  0  0  0
   34.6230   -9.0650  -11.2990   C 0  0  0  0  0  0  0  0  0  0  0  0
   34.5560   -7.8520  -12.1690   C 0  0  0  0  0  0  0  0  0  0  0  0
   33.5260   -6.8220  -11.8390   C 0  0  0  0  0  0  0  0  0  0  0  0
   33.2750   -5.7770  -12.7960   N 0  0  0  0  0  0  0  0  0  0  0  0
   35.4790  -12.0050  -10.8820   C 0  0  0  0  0  0  0  0  0  0  0  0
   36.2310  -12.0730  -11.8910   O 0  0  0  0  0  0  0  0  0  0  0  0
   35.9140  -12.3020   -9.7340   O 0  0  0  0  0  0  0  0  0  0  0  0
 10  9  1  0  0  0  0
  9  8  1  0  0  0  0
  8  7  1  0  0  0  0
  7  6  1  0  0  0  0
  4  3  2  0  0  0  0
  6  2  1  0  0  0  0
  5  3  1  0  0  0  0
  3  2  1  0  0  0  0
  1  2  1  0  0  0  0
  2 11  1  0  0  0  0
 11 12  1  0  0  0  0
 12 13  1  0  0  0  0
 13 14  1  0  0  0  0
 13 15  1  0  0  0  0
 13 20  1  0  0  0  0
 15 16  1  0  0  0  0
 20 21  2  0  0  0  0
 20 22  1  0  0  0  0
 16 17  1  0  0  0  0
 17 18  1  0  0  0  0
 18 19  1  0  0  0  0
M  END
>  <InstanceId>
5F1V_3VN_A_301

>  <ChemCompId>
3VN

>  <PdbId>
5F1V

>  <ChainId>
A

>  <ResidueNumber>
301

>  <InsertionCode>


>  <Model>
1

>  <AltIds>


>  <MissingHeavyAtoms>
0

>  <ObservedFormula>
C14 N4 O4

>  <Name>
(2R,5R)-2,5-diamino-2,5-bis(4-aminobutyl)hexanedioic acid

>  <SystematicName>
(2R,5R)-2,5-bis(azanyl)-2,5-bis(4-azanylbutyl)hexanedioic acid

>  <Synonyms>
bis-Lysine

>  <Type>
NON-POLYMER

>  <Formula>
C14 H30 N4 O4

>  <MolecularWeight>
318.412

>  <ModifiedDate>
2016-02-12

>  <Parent>


>  <OneLetterCode>


>  <SubcomponentList>


>  <AmbiguousFlag>
N

>  <InChI>
InChI=1S/C14H30N4O4/c15-9-3-1-5-13(17,11(19)20)7-8-14(18,12(21)22)6-2-4-10-16/h1-10,15-18H2,(H,19,20)(H,21,22)/t13-,14-/m1/s1

>  <InChIKey>
XYUHPPVEDOOPDE-ZIAGYGMSSA-N

>  <SMILES>
C(CCN)C[C@@](CC[C@](CCCCN)(C(=O)O)N)(C(=O)O)N

$$$$
