5EEI_SHH_A_2004
  RCSB PDB08022001133D
Coordinates from PDB:5EEI:A:2004 Model:1 without hydrogens
 19 19  0  0  0  0            999 V2000
    3.5580   -8.7140    1.6040   O 0  0  0  0  0  0  0  0  0  0  0  0
    5.0390   -7.0310    2.8860   O 0  0  0  0  0  0  0  0  0  0  0  0
    4.4390   -7.8860    0.9540   N 0  0  0  0  0  0  0  0  0  0  0  0
    5.1450   -7.0400    1.6670   C 0  0  0  0  0  0  0  0  0  0  0  0
    6.0770   -6.1070    0.9290   C 0  0  0  0  0  0  0  0  0  0  0  0
    5.5460   -5.7040   -0.4290   C 0  0  0  0  0  0  0  0  0  0  0  0
    6.4250   -4.6400   -1.0500   C 0  0  0  0  0  0  0  0  0  0  0  0
    5.9100   -3.2480   -0.7060   C 0  0  0  0  0  0  0  0  0  0  0  0
    6.3920   -2.2720   -1.7590   C 0  0  0  0  0  0  0  0  0  0  0  0
    5.7660   -0.9010   -1.5470   C 0  0  0  0  0  0  0  0  0  0  0  0
    6.2230   -0.3080   -0.2340   C 0  0  0  0  0  0  0  0  0  0  0  0
    5.4330   -0.1540    0.6850   O 0  0  0  0  0  0  0  0  0  0  0  0
    7.5170   -0.0110   -0.1990   N 0  0  0  0  0  0  0  0  0  0  0  0
    8.2540    0.5420    0.8680   C 0  0  0  0  0  0  0  0  0  0  0  0
    9.6320    0.4080    0.8200   C 0  0  0  0  0  0  0  0  0  0  0  0
   10.4350    0.9430    1.8220   C 0  0  0  0  0  0  0  0  0  0  0  0
    9.8590    1.6490    2.8680   C 0  0  0  0  0  0  0  0  0  0  0  0
    8.4860    1.7870    2.9330   C 0  0  0  0  0  0  0  0  0  0  0  0
    7.6880    1.2500    1.9350   C 0  0  0  0  0  0  0  0  0  0  0  0
  1  3  1  0  0  0  0
  2  4  2  0  0  0  0
  3  4  1  0  0  0  0
  4  5  1  0  0  0  0
  5  6  1  0  0  0  0
  6  7  1  0  0  0  0
  7  8  1  0  0  0  0
  8  9  1  0  0  0  0
  9 10  1  0  0  0  0
 10 11  1  0  0  0  0
 11 12  2  0  0  0  0
 11 13  1  0  0  0  0
 13 14  1  0  0  0  0
 14 15  2  0  0  0  0
 14 19  1  0  0  0  0
 15 16  1  0  0  0  0
 16 17  2  0  0  0  0
 17 18  1  0  0  0  0
 18 19  2  0  0  0  0
M  END
>  <InstanceId>
5EEI_SHH_A_2004

>  <ChemCompId>
SHH

>  <PdbId>
5EEI

>  <ChainId>
A

>  <ResidueNumber>
2004

>  <InsertionCode>


>  <Model>
1

>  <AltIds>


>  <MissingHeavyAtoms>
0

>  <ObservedFormula>
C14 N2 O3

>  <Name>
OCTANEDIOIC ACID HYDROXYAMIDE PHENYLAMIDE

>  <SystematicName>
N-hydroxy-N'-phenyl-octanediamide

>  <Synonyms>
SAHA

>  <Type>
NON-POLYMER

>  <Formula>
C14 H20 N2 O3

>  <MolecularWeight>
264.32

>  <ModifiedDate>
2011-06-04

>  <Parent>


>  <OneLetterCode>


>  <SubcomponentList>


>  <AmbiguousFlag>
N

>  <InChI>
InChI=1S/C14H20N2O3/c17-13(15-12-8-4-3-5-9-12)10-6-1-2-7-11-14(18)16-19/h3-5,8-9,19H,1-2,6-7,10-11H2,(H,15,17)(H,16,18)

>  <InChIKey>
WAEXFXRVDQXREF-UHFFFAOYSA-N

>  <SMILES>
c1ccc(cc1)NC(=O)CCCCCCC(=O)NO

$$$$
