4J93_1JR_A_202
  RCSB PDB08012022063D
Coordinates from PDB:4J93:A:202 Model:1 without hydrogens
 21 24  0  0  0  0            999 V2000
   -3.1110    8.1750   10.4200   C 0  0  0  0  0  0  0  0  0  0  0  0
   -3.6170    7.5050   11.5330   C 0  0  0  0  0  0  0  0  0  0  0  0
   -2.6190    7.4470    9.3350   C 0  0  0  0  0  0  0  0  0  0  0  0
   -3.9550    5.1760    5.4670   C 0  0  0  0  0  0  0  0  0  0  0  0
   -3.6330    6.1060   11.5540   C 0  0  0  0  0  0  0  0  0  0  0  0
   -2.6290    6.0490    9.3570   C 0  0  0  0  0  0  0  0  0  0  0  0
   -3.0810    4.5250    6.3330   C 0  0  0  0  0  0  0  0  0  0  0  0
   -5.2710    4.7500    5.4150   C 0  0  0  0  0  0  0  0  0  0  0  0
   -4.8840    3.1180    6.9870   C 0  0  0  0  0  0  0  0  0  0  0  0
   -3.1440    5.3640   10.4680   C 0  0  0  0  0  0  0  0  0  0  0  0
   -3.5430    3.4730    7.1350   C 0  0  0  0  0  0  0  0  0  0  0  0
   -2.9420    2.9530    9.4910   C 0  0  0  0  0  0  0  0  0  0  0  0
   -3.1640    3.9040   10.5110   C 0  0  0  0  0  0  0  0  0  0  0  0
   -3.0790    1.7350   10.1030   C 0  0  0  0  0  0  0  0  0  0  0  0
   -2.8870    0.6500    9.2130   C 0  0  0  0  0  0  0  0  0  0  0  0
   -2.6010    2.7510    8.0580   C 0  0  0  0  0  0  0  0  0  0  0  0
   -5.7590    3.7350    6.1580   N 0  0  0  0  0  0  0  0  0  0  0  0
   -3.4260    3.2700   11.6800   N 0  0  0  0  0  0  0  0  0  0  0  0
   -3.3710    1.9470   11.3960   N 0  0  0  0  0  0  0  0  0  0  0  0
   -2.7510    1.2810    7.9760   N 0  0  0  0  0  0  0  0  0  0  0  0
   -2.8730   -0.5450    9.4450   O 0  0  0  0  0  0  0  0  0  0  0  0
  8  4  2  0  0  0  0
  8 17  1  0  0  0  0
  4  7  1  0  0  0  0
 17  9  2  0  0  0  0
  7 11  2  0  0  0  0
  9 11  1  0  0  0  0
 11 16  1  0  0  0  0
 20 16  1  0  0  0  0
 20 15  1  0  0  0  0
 16 12  1  0  0  0  0
 15 21  2  0  0  0  0
 15 14  1  0  0  0  0
  3  6  2  0  0  0  0
  3  1  1  0  0  0  0
  6 10  1  0  0  0  0
 12 14  1  0  0  0  0
 12 13  2  0  0  0  0
 14 19  2  0  0  0  0
  1  2  2  0  0  0  0
 10 13  1  0  0  0  0
 10  5  2  0  0  0  0
 13 18  1  0  0  0  0
 19 18  1  0  0  0  0
  2  5  1  0  0  0  0
M  END
>  <InstanceId>
4J93_1JR_A_202

>  <ChemCompId>
1JR

>  <PdbId>
4J93

>  <ChainId>
A

>  <ResidueNumber>
202

>  <InsertionCode>


>  <Model>
1

>  <AltIds>


>  <MissingHeavyAtoms>
0

>  <ObservedFormula>
C16 N4 O

>  <Name>
(4S)-3-phenyl-4-(pyridin-3-yl)-4,5-dihydropyrrolo[3,4-c]pyrazol-6(2H)-one

>  <SystematicName>
(4S)-3-phenyl-4-pyridin-3-yl-4,5-dihydro-2H-pyrrolo[3,4-c]pyrazol-6-one

>  <Synonyms>


>  <Type>
NON-POLYMER

>  <Formula>
C16 H12 N4 O

>  <MolecularWeight>
276.293

>  <ModifiedDate>
2013-07-05

>  <Parent>


>  <OneLetterCode>


>  <SubcomponentList>


>  <AmbiguousFlag>
N

>  <InChI>
InChI=1S/C16H12N4O/c21-16-15-12(13(18-16)11-7-4-8-17-9-11)14(19-20-15)10-5-2-1-3-6-10/h1-9,13H,(H,18,21)(H,19,20)/t13-/m0/s1

>  <InChIKey>
OHFQLOFZGKOEBH-ZDUSSCGKSA-N

>  <SMILES>
c1ccc(cc1)c2c3c(n[nH]2)C(=O)N[C@H]3c4cccnc4

$$$$
