5NEA_8V8_A_302
  RCSB PDB08022002323D
Coordinates from PDB:5NEA:A:302 Model:1 without hydrogens
 16 17  0  0  0  0            999 V2000
   -3.3130    3.3330   14.8610   C 0  0  0  0  0  0  0  0  0  0  0  0
   -5.4890    4.3110   14.6280   C 0  0  0  0  0  0  0  0  0  0  0  0
   -6.0470    3.2550   15.3260   C 0  0  0  0  0  0  0  0  0  0  0  0
   -3.8620    2.2650   15.5540   C 0  0  0  0  0  0  0  0  0  0  0  0
   -4.1200    4.3610   14.3760   C 0  0  0  0  0  0  0  0  0  0  0  0
   -3.5470    5.5010   13.6580   C 0  0  0  0  0  0  0  0  0  0  0  0
   -4.0270    6.4480   12.8290   C 0  0  0  0  0  0  0  0  0  0  0  0
   -3.0390    7.3390   12.4830   N 0  0  0  0  0  0  0  0  0  0  0  0
   -1.9990    6.8790   13.0950   C 0  0  0  0  0  0  0  0  0  0  0  0
   -2.1740    5.6500   13.6800   O 0  0  0  0  0  0  0  0  0  0  0  0
   -0.6350    7.4540   13.1420   C 0  0  0  0  0  0  0  0  0  0  0  0
   -5.2310    2.2330   15.7870   C 0  0  0  0  0  0  0  0  0  0  0  0
   -5.9430    0.9090   16.7200   S 0  0  0  0  0  0  0  0  0  0  0  0
   -5.4230    1.0260   18.0520   O 0  0  0  0  0  0  0  0  0  0  0  0
   -7.3690    0.9950   16.5360   O 0  0  0  0  0  0  0  0  0  0  0  0
   -5.4370   -0.4810   16.0890   N 0  0  0  0  0  0  0  0  0  0  0  0
  8  7  1  0  0  0  0
  8  9  2  0  0  0  0
  7  6  2  0  0  0  0
  9 11  1  0  0  0  0
  9 10  1  0  0  0  0
  6 10  1  0  0  0  0
  6  5  1  0  0  0  0
  5  2  2  0  0  0  0
  5  1  1  0  0  0  0
  2  3  1  0  0  0  0
  1  4  2  0  0  0  0
  3 12  2  0  0  0  0
  4 12  1  0  0  0  0
 12 13  1  0  0  0  0
 16 13  1  0  0  0  0
 15 13  2  0  0  0  0
 13 14  2  0  0  0  0
M  END
>  <InstanceId>
5NEA_8V8_A_302

>  <ChemCompId>
8V8

>  <PdbId>
5NEA

>  <ChainId>
A

>  <ResidueNumber>
302

>  <InsertionCode>


>  <Model>
1

>  <AltIds>


>  <MissingHeavyAtoms>
0

>  <ObservedFormula>
C10 N2 O3 S

>  <Name>
4-(2-methyl-1,3-oxazol-5-yl)benzenesulfonamide

>  <SystematicName>
4-(2-methyl-1,3-oxazol-5-yl)benzenesulfonamide

>  <Synonyms>


>  <Type>
NON-POLYMER

>  <Formula>
C10 H10 N2 O3 S

>  <MolecularWeight>
238.263

>  <ModifiedDate>
2017-12-01

>  <Parent>


>  <OneLetterCode>


>  <SubcomponentList>


>  <AmbiguousFlag>
N

>  <InChI>
InChI=1S/C10H10N2O3S/c1-7-12-6-10(15-7)8-2-4-9(5-3-8)16(11,13)14/h2-6H,1H3,(H2,11,13,14)

>  <InChIKey>
FETRXICILYMBJH-UHFFFAOYSA-N

>  <SMILES>
Cc1ncc(o1)c2ccc(cc2)S(=O)(=O)N

$$$$
