3QTV_06P_H_1001
  RCSB PDB08012020173D
Coordinates from PDB:3QTV:H:1001 Model:1 without hydrogens
 27 29  0  0  0  0            999 V2000
   16.3240  -15.5750   23.1220   N 0  0  0  0  0  0  0  0  0  0  0  0
   17.5740  -14.8360   23.1290   C 0  0  0  0  0  0  0  0  0  0  0  0
   17.3340  -13.4700   22.5350   C 0  0  0  0  0  0  0  0  0  0  0  0
   16.4020  -12.7660   22.9200   O 0  0  0  0  0  0  0  0  0  0  0  0
   18.0670  -14.7750   24.5810   C 0  0  0  0  0  0  0  0  0  0  0  0
   19.4860  -14.2600   24.6610   C 0  0  0  0  0  0  0  0  0  0  0  0
   19.7430  -13.0940   25.3650   C 0  0  0  0  0  0  0  0  0  0  0  0
   20.5370  -14.9340   24.0400   C 0  0  0  0  0  0  0  0  0  0  0  0
   21.0300  -12.5830   25.4470   C 0  0  0  0  0  0  0  0  0  0  0  0
   21.8300  -14.4270   24.1340   C 0  0  0  0  0  0  0  0  0  0  0  0
   22.0810  -13.2550   24.8330   C 0  0  0  0  0  0  0  0  0  0  0  0
   18.1550  -13.0590   21.5740   N 0  0  0  0  0  0  0  0  0  0  0  0
   17.9440  -11.7490   20.9560   C 0  0  0  0  0  0  0  0  0  0  0  0
   16.5540  -11.6290   20.3890   C 0  0  0  0  0  0  0  0  0  0  0  0
   16.0470  -12.5660   19.7770   O 0  0  0  0  0  0  0  0  0  0  0  0
   18.9730  -11.7000   19.8310   C 0  0  0  0  0  0  0  0  0  0  0  0
   20.0360  -12.7230   20.2060   C 0  0  0  0  0  0  0  0  0  0  0  0
   19.2970  -13.7850   21.0070   C 0  0  0  0  0  0  0  0  0  0  0  0
   15.9050  -10.4820   20.5940   N 0  0  0  0  0  0  0  0  0  0  0  0
   14.5420  -10.2290   20.0990   C 0  0  0  0  0  0  0  0  0  0  0  0
   13.5360  -10.4590   21.2090   C 0  0  0  0  0  0  0  0  0  0  0  0
   13.2030   -9.4420   22.1000   C 0  0  0  0  0  0  0  0  0  0  0  0
   12.2790   -9.6970   23.1090   C 0  0  0  0  0  0  0  0  0  0  0  0
   11.7190  -10.9100   23.2440   N 0  3  0  0  0  0  0  0  0  0  0  0
   10.7470  -11.1450   24.3190   C 0  0  0  0  0  0  0  0  0  0  0  0
   12.0350  -11.9080   22.4010   C 0  0  0  0  0  0  0  0  0  0  0  0
   12.9460  -11.7040   21.3730   C 0  0  0  0  0  0  0  0  0  0  0  0
  6  5  1  0  0  0  0
  6  7  2  0  0  0  0
  6  8  1  0  0  0  0
  5  2  1  0  0  0  0
  2  1  1  0  0  0  0
  2  3  1  0  0  0  0
  3 12  1  0  0  0  0
  3  4  2  0  0  0  0
 12 13  1  0  0  0  0
 12 18  1  0  0  0  0
  7  9  1  0  0  0  0
  9 11  2  0  0  0  0
 11 10  1  0  0  0  0
 10  8  2  0  0  0  0
 13 14  1  0  0  0  0
 13 16  1  0  0  0  0
 14 15  2  0  0  0  0
 14 19  1  0  0  0  0
 19 20  1  0  0  0  0
 20 21  1  0  0  0  0
 21 22  2  0  0  0  0
 21 27  1  0  0  0  0
 16 17  1  0  0  0  0
 17 18  1  0  0  0  0
 22 23  1  0  0  0  0
 23 24  2  0  0  0  0
 24 25  1  0  0  0  0
 24 26  1  0  0  0  0
 26 27  2  0  0  0  0
M  CHG  1  24   1
M  END
>  <InstanceId>
3QTV_06P_H_1001

>  <ChemCompId>
06P

>  <PdbId>
3QTV

>  <ChainId>
H

>  <ResidueNumber>
1001

>  <InsertionCode>


>  <Model>
1

>  <AltIds>


>  <MissingHeavyAtoms>
0

>  <ObservedFormula>
C21 N4 O2

>  <Name>
D-phenylalanyl-N-[(1-methylpyridinium-4-yl)methyl]-L-prolinamide

>  <SystematicName>
(2S)-1-[(2R)-2-azanyl-3-phenyl-propanoyl]-N-[(1-methylpyridin-1-ium-4-yl)methyl]pyrrolidine-2-carboxamide

>  <Synonyms>


>  <Type>
peptide-like

>  <Formula>
C21 H27 N4 O2

>  <MolecularWeight>
367.465

>  <ModifiedDate>
2012-02-24

>  <Parent>


>  <OneLetterCode>


>  <SubcomponentList>
DPN PRO NNK

>  <AmbiguousFlag>
N

>  <InChI>
InChI=1S/C21H26N4O2/c1-24-12-9-17(10-13-24)15-23-20(26)19-8-5-11-25(19)21(27)18(22)14-16-6-3-2-4-7-16/h2-4,6-7,9-10,12-13,18-19H,5,8,11,14-15,22H2,1H3/p+1/t18-,19+/m1/s1

>  <InChIKey>
XPNLMZJVXKGMFM-MOPGFXCFSA-O

>  <SMILES>
C[n+]1ccc(cc1)CNC(=O)[C@@H]2CCCN2C(=O)[C@@H](Cc3ccccc3)N

$$$$
