5U0D_7R7_A_302
  RCSB PDB08022003093D
Coordinates from PDB:5U0D:A:302 Model:1 without hydrogens
 17 18  0  0  0  0            999 V2000
   -2.6540    4.0060   14.4250   C 0  0  0  0  0  0  0  0  0  0  0  0
   -2.6830    5.2690   13.8510   C 0  0  0  0  0  0  0  0  0  0  0  0
   -5.0440    5.3110   14.1400   C 0  0  0  0  0  0  0  0  0  0  0  0
   -3.7980    3.3730   14.8660   C 0  0  0  0  0  0  0  0  0  0  0  0
   -3.8880    5.9210   13.7040   C 0  0  0  0  0  0  0  0  0  0  0  0
   -4.9870    4.0560   14.7200   C 0  0  0  0  0  0  0  0  0  0  0  0
   -4.5320    0.9130   14.8070   C 0  0  0  0  0  0  0  0  0  0  0  0
   -5.3140    1.0850   16.7580   C 0  0  0  0  0  0  0  0  0  0  0  0
   -3.7280    1.9890   15.4900   C 0  0  0  0  0  0  0  0  0  0  0  0
   -2.9240    7.7430   12.5190   C 0  0  0  0  0  0  0  0  0  0  0  0
   -6.8210    4.0710   16.2010   C 0  0  0  0  0  0  0  0  0  0  0  0
   -5.4350    0.3980   15.6640   N 0  0  0  0  0  0  0  0  0  0  0  0
   -4.3490    0.5960   13.6300   O 0  0  0  0  0  0  0  0  0  0  0  0
   -4.2800    1.9500   16.7970   O 0  0  0  0  0  0  0  0  0  0  0  0
   -4.0960    7.1940   13.1420   O 0  0  0  0  0  0  0  0  0  0  0  0
   -6.1240    3.4310   15.1300   O 0  0  0  0  0  0  0  0  0  0  0  0
   -6.1960    0.9910   18.1360   S 0  0  0  0  0  0  0  0  0  0  0  0
 10 15  1  0  0  0  0
 15  5  1  0  0  0  0
 13  7  2  0  0  0  0
  5  2  2  0  0  0  0
  5  3  1  0  0  0  0
  2  1  1  0  0  0  0
  3  6  2  0  0  0  0
  1  4  2  0  0  0  0
  6  4  1  0  0  0  0
  6 16  1  0  0  0  0
  7  9  1  0  0  0  0
  7 12  1  0  0  0  0
  4  9  1  0  0  0  0
 16 11  1  0  0  0  0
  9 14  1  0  0  0  0
 12  8  1  0  0  0  0
  8 14  1  0  0  0  0
  8 17  2  0  0  0  0
M  END
>  <InstanceId>
5U0D_7R7_A_302

>  <ChemCompId>
7R7

>  <PdbId>
5U0D

>  <ChainId>
A

>  <ResidueNumber>
302

>  <InsertionCode>


>  <Model>
1

>  <AltIds>


>  <MissingHeavyAtoms>
0

>  <ObservedFormula>
C11 N O4 S

>  <Name>
(5R)-5-(2,4-dimethoxyphenyl)-2-sulfanylidene-1,3-oxazolidin-4-one

>  <SystematicName>
(5~{R})-5-(2,4-dimethoxyphenyl)-2-sulfanylidene-1,3-oxazolidin-4-one

>  <Synonyms>


>  <Type>
NON-POLYMER

>  <Formula>
C11 H11 N O4 S

>  <MolecularWeight>
253.274

>  <ModifiedDate>
2017-08-25

>  <Parent>


>  <OneLetterCode>


>  <SubcomponentList>


>  <AmbiguousFlag>
N

>  <InChI>
InChI=1S/C11H11NO4S/c1-14-6-3-4-7(8(5-6)15-2)9-10(13)12-11(17)16-9/h3-5,9H,1-2H3,(H,12,13,17)/t9-/m1/s1

>  <InChIKey>
OLPJWIMQEIBDQP-SECBINFHSA-N

>  <SMILES>
COc1ccc(c(c1)OC)[C@@H]2C(=O)NC(=S)O2

$$$$
