4G95_OAG_A_201
  RCSB PDB08012021473D
Coordinates from PDB:4G95:A:201 Model:1 without hydrogens
 22 24  0  0  0  0            999 V2000
   30.0880   13.9890    0.8990   C 0  0  0  0  0  0  0  0  0  0  0  0
   31.2330   13.2110    1.3160   N 0  0  0  0  0  0  0  0  0  0  0  0
   33.4260   11.5760    2.4580  Cl 0  0  0  0  0  0  0  0  0  0  0  0
   34.3410   16.6540   -0.8360  Cl 0  0  0  0  0  0  0  0  0  0  0  0
   28.4380   13.2200   -0.7830   C 0  0  0  0  0  0  0  0  0  0  0  0
   32.4270   13.6930    1.0510   C 0  0  0  0  0  0  0  0  0  0  0  0
   28.4380   12.5850   -4.2970   N 0  0  0  0  0  0  0  0  0  0  0  0
   29.7420   13.6660   -0.5710   C 0  0  0  0  0  0  0  0  0  0  0  0
   33.5280   13.0010    1.5190   C 0  0  0  0  0  0  0  0  0  0  0  0
   34.9680   14.6950    0.4620   C 0  0  0  0  0  0  0  0  0  0  0  0
   27.1410   12.1850   -4.4820   C 0  0  0  0  0  0  0  0  0  0  0  0
   26.7090   11.8640   -5.7160   N 0  0  0  0  0  0  0  0  0  0  0  0
   34.7040   13.6410    1.2510   C 0  0  0  0  0  0  0  0  0  0  0  0
   26.2680   12.0320   -3.4790   N 0  0  0  0  0  0  0  0  0  0  0  0
   26.7170   12.3420   -2.2300   C 0  0  0  0  0  0  0  0  0  0  0  0
   25.7880   12.1880   -1.2800   N 0  0  0  0  0  0  0  0  0  0  0  0
   27.9900   12.8720   -2.0440   C 0  0  0  0  0  0  0  0  0  0  0  0
   33.8790   15.3230    0.0420   C 0  0  0  0  0  0  0  0  0  0  0  0
   32.5800   14.8720    0.2970   C 0  0  0  0  0  0  0  0  0  0  0  0
   30.5860   13.7620   -1.6700   C 0  0  0  0  0  0  0  0  0  0  0  0
   30.1680   13.3910   -2.8780   N 0  0  0  0  0  0  0  0  0  0  0  0
   28.9110   12.9330   -3.0590   C 0  0  0  0  0  0  0  0  0  0  0  0
  8  1  1  0  0  0  0
  1  2  1  0  0  0  0
  2  6  1  0  0  0  0
  9  3  1  0  0  0  0
  4 18  1  0  0  0  0
 17  5  2  0  0  0  0
  5  8  1  0  0  0  0
 19  6  2  0  0  0  0
  6  9  1  0  0  0  0
 11  7  2  0  0  0  0
  7 22  1  0  0  0  0
 20  8  2  0  0  0  0
  9 13  2  0  0  0  0
 18 10  2  0  0  0  0
 10 13  1  0  0  0  0
 12 11  1  0  0  0  0
 11 14  1  0  0  0  0
 14 15  2  0  0  0  0
 15 17  1  0  0  0  0
 15 16  1  0  0  0  0
 22 17  1  0  0  0  0
 19 18  1  0  0  0  0
 21 20  1  0  0  0  0
 22 21  2  0  0  0  0
M  END
>  <InstanceId>
4G95_OAG_A_201

>  <ChemCompId>
OAG

>  <PdbId>
4G95

>  <ChainId>
A

>  <ResidueNumber>
201

>  <InsertionCode>


>  <Model>
1

>  <AltIds>


>  <MissingHeavyAtoms>
0

>  <ObservedFormula>
C14 N6 Cl2

>  <Name>
6-{[(2,5-dichlorophenyl)amino]methyl}pyrido[2,3-d]pyrimidine-2,4-diamine

>  <SystematicName>
6-[[(2,5-dichlorophenyl)amino]methyl]pyrido[2,3-d]pyrimidine-2,4-diamine

>  <Synonyms>


>  <Type>
NON-POLYMER

>  <Formula>
C14 H12 Cl2 N6

>  <MolecularWeight>
335.191

>  <ModifiedDate>
2011-06-04

>  <Parent>


>  <OneLetterCode>


>  <SubcomponentList>


>  <AmbiguousFlag>
N

>  <InChI>
InChI=1S/C14H12Cl2N6/c15-8-1-2-10(16)11(4-8)19-5-7-3-9-12(17)21-14(18)22-13(9)20-6-7/h1-4,6,19H,5H2,(H4,17,18,20,21,22)

>  <InChIKey>
RSPDQFOJWPXTPN-UHFFFAOYSA-N

>  <SMILES>
c1cc(c(cc1Cl)NCc2cc3c(nc(nc3nc2)N)N)Cl

$$$$
