5AMG_IW7_A_266
  RCSB PDB08022000483D
Coordinates from PDB:5AMG:A:266 Model:1 without hydrogens
 22 22  0  0  0  0            999 V2000
   -7.3700    1.3400   16.8430   O 0  0  0  0  0  0  0  0  0  0  0  0
   -5.9870    1.0240   16.5680   S 0  0  0  0  0  0  0  0  0  0  0  0
   -5.1090    1.3840   17.6380   O 0  0  0  0  0  0  0  0  0  0  0  0
   -5.7910   -0.5430   16.4470   N 0  0  0  0  0  0  0  0  0  0  0  0
   -5.4810    1.7990   15.1870   C 0  0  0  0  0  0  0  0  0  0  0  0
   -4.7720    1.1350   14.1540   C 0  0  0  0  0  0  0  0  0  0  0  0
   -4.3500    1.7960   12.9910   C 0  0  0  0  0  0  0  0  0  0  0  0
   -4.6250    3.1460   12.8210   C 0  0  0  0  0  0  0  0  0  0  0  0
   -4.2130    3.7870   11.5530   C 0  0  0  0  0  0  0  0  0  0  0  0
   -4.8070    3.4890   10.5540   O 0  0  0  0  0  0  0  0  0  0  0  0
   -3.2720    4.7000   11.5270   O 0  0  0  0  0  0  0  0  0  0  0  0
   -5.8010    3.1610   15.0110   C 0  0  0  0  0  0  0  0  0  0  0  0
   -5.4060    3.8630   13.8590   C 0  0  0  0  0  0  0  0  0  0  0  0
   -5.7460    5.4430   13.7160   S 0  0  0  0  0  0  0  0  0  0  0  0
   -6.4930    5.8670   12.5710   O 0  0  0  0  0  0  0  0  0  0  0  0
   -6.1440    5.9890   14.9510   O 0  0  0  0  0  0  0  0  0  0  0  0
   -4.3680    6.2280   13.4460   N 0  0  0  0  0  0  0  0  0  0  0  0
   -3.3230    6.2750   14.4680   C 0  0  0  0  0  0  0  0  0  0  0  0
   -2.1110    7.0870   14.0000   C 0  0  0  0  0  0  0  0  0  0  0  0
   -1.9600    8.3750   14.7620   C 0  0  0  0  0  0  0  0  0  0  0  0
   -0.8070    9.2180   14.2070   C 0  0  0  0  0  0  0  0  0  0  0  0
   -1.2430   10.4100   13.3730   C 0  0  0  0  0  0  0  0  0  0  0  0
  1  2  2  0  0  0  0
  2  3  2  0  0  0  0
  2  4  1  0  0  0  0
  2  5  1  0  0  0  0
  5  6  1  0  0  0  0
  5 12  2  0  0  0  0
  6  7  2  0  0  0  0
  7  8  1  0  0  0  0
  8  9  1  0  0  0  0
  8 13  2  0  0  0  0
  9 10  2  0  0  0  0
  9 11  1  0  0  0  0
 12 13  1  0  0  0  0
 13 14  1  0  0  0  0
 14 15  2  0  0  0  0
 14 16  2  0  0  0  0
 14 17  1  0  0  0  0
 17 18  1  0  0  0  0
 18 19  1  0  0  0  0
 19 20  1  0  0  0  0
 20 21  1  0  0  0  0
 21 22  1  0  0  0  0
M  END
>  <InstanceId>
5AMG_IW7_A_266

>  <ChemCompId>
IW7

>  <PdbId>
5AMG

>  <ChainId>
A

>  <ResidueNumber>
266

>  <InsertionCode>


>  <Model>
1

>  <AltIds>


>  <MissingHeavyAtoms>
0

>  <ObservedFormula>
C12 N2 O6 S2

>  <Name>
2-(PENTYLSULFAMOYL)-4-SULFAMOYLBENZOIC ACID

>  <SystematicName>
2-(pentylsulfamoyl)-4-sulfamoyl-benzoic acid

>  <Synonyms>


>  <Type>
non-polymer

>  <Formula>
C12 H18 N2 O6 S2

>  <MolecularWeight>
350.411

>  <ModifiedDate>
2015-04-03

>  <Parent>


>  <OneLetterCode>


>  <SubcomponentList>


>  <AmbiguousFlag>
N

>  <InChI>
InChI=1S/C12H18N2O6S2/c1-2-3-4-7-14-22(19,20)11-8-9(21(13,17)18)5-6-10(11)12(15)16/h5-6,8,14H,2-4,7H2,1H3,(H,15,16)(H2,13,17,18)

>  <InChIKey>
AEZMRAYAYORFQC-UHFFFAOYSA-N

>  <SMILES>
CCCCCNS(=O)(=O)c1cc(ccc1C(=O)O)S(=O)(=O)N

$$$$
