3BWJ_ARX_A_351
  RCSB PDB08012018403D
Coordinates from PDB:3BWJ:A:351 Model:1 without hydrogens
 50 52  0  0  0  0            999 V2000
   23.1710   26.3690    7.5560   N 0  0  0  0  0  0  0  0  0  0  0  0
   24.0430   27.3810    7.6620   C 0  0  0  0  0  0  0  0  0  0  0  0
   25.3550   27.2370    7.9450   N 0  0  0  0  0  0  0  0  0  0  0  0
   25.8840   26.0060    8.1280   C 0  0  0  0  0  0  0  0  0  0  0  0
   25.0130   24.8410    8.0200   C 0  0  0  0  0  0  0  0  0  0  0  0
   23.5810   25.0690    7.7130   C 0  0  0  0  0  0  0  0  0  0  0  0
   22.7430   23.9950    7.6090   N 0  0  0  0  0  0  0  0  0  0  0  0
   25.7800   23.7630    8.2720   N 0  0  0  0  0  0  0  0  0  0  0  0
   27.0270   24.1860    8.5130   C 0  0  0  0  0  0  0  0  0  0  0  0
   27.0960   25.5190    8.4280   N 0  0  0  0  0  0  0  0  0  0  0  0
   29.6630   22.8450    9.4920   O 0  0  0  0  0  0  0  0  0  0  0  0
   29.9640   26.1520   11.9030   O 0  0  0  0  0  0  0  0  0  0  0  0
   29.0070   27.9100   10.1370   O 0  0  0  0  0  0  0  0  0  0  0  0
   29.4840   25.5210    8.3440   O 0  0  0  0  0  0  0  0  0  0  0  0
   30.5390   23.7150    9.5380   C 0  0  0  0  0  0  0  0  0  0  0  0
   29.2820   25.6030   10.7420   C 0  0  0  0  0  0  0  0  0  0  0  0
   28.3910   26.6480   10.1030   C 0  0  0  0  0  0  0  0  0  0  0  0
   30.1970   25.1850    9.5590   C 0  0  0  0  0  0  0  0  0  0  0  0
   28.3280   26.3210    8.6350   C 0  0  0  0  0  0  0  0  0  0  0  0
   35.7640   19.7640    7.6010   C 0  0  0  0  0  0  0  0  0  0  0  0
   36.7260   20.1060    6.9220   O 0  0  0  0  0  0  0  0  0  0  0  0
   34.4010   19.7650    6.9550   C 0  0  0  0  0  0  0  0  0  0  0  0
   34.0940   21.1600    6.4050   C 0  0  0  0  0  0  0  0  0  0  0  0
   33.5710   22.0920    7.4870   C 0  0  0  0  0  0  0  0  0  0  0  0
   32.4400   21.4350    8.2830   C 0  0  0  0  0  0  0  0  0  0  0  0
   32.2310   22.0290    9.6720   C 0  0  0  0  0  0  0  0  0  0  0  0
   31.8460   23.4180    9.5940   N 0  0  0  0  0  0  0  0  0  0  0  0
   35.8270   19.3740    8.8720   N 0  0  0  0  0  0  0  0  0  0  0  0
   37.0350   19.3320    9.6920   C 0  0  0  0  0  0  0  0  0  0  0  0
   36.8030   18.3720   10.8750   C 0  0  0  0  0  0  0  0  0  0  0  0
   38.0340   18.0830   11.7410   C 0  0  0  0  0  0  0  0  0  0  0  0
   38.0240   18.8420   13.0850   C 0  0  0  0  0  0  0  0  0  0  0  0
   37.4000   18.1340   14.2020   N 0  0  0  0  0  0  0  0  0  0  0  0
   36.1530   18.3920   14.6260   C 0  0  0  0  0  0  0  0  0  0  0  0
   35.9590   19.0230   15.7930   N 0  0  0  0  0  0  0  0  0  0  0  0
   35.1530   18.0260   13.9310   N 0  0  0  0  0  0  0  0  0  0  0  0
   37.3900   20.7160   10.1890   C 0  0  0  0  0  0  0  0  0  0  0  0
   38.5710   21.0280   10.3210   O 0  0  0  0  0  0  0  0  0  0  0  0
   36.3500   21.5330   10.4370   N 0  0  0  0  0  0  0  0  0  0  0  0
   36.1130   22.5140   11.5270   C 0  0  0  0  0  0  0  0  0  0  0  0
   36.7070   23.9100   11.2190   C 0  0  0  0  0  0  0  0  0  0  0  0
   38.2280   23.9250   11.0120   C 0  0  0  0  0  0  0  0  0  0  0  0
   38.7890   25.3250   10.7680   C 0  0  0  0  0  0  0  0  0  0  0  0
   40.0010   25.3040    9.9650   N 0  0  0  0  0  0  0  0  0  0  0  0
   40.2690   26.2090    9.0070   C 0  0  0  0  0  0  0  0  0  0  0  0
   40.2770   27.4440    9.2820   N 0  0  0  0  0  0  0  0  0  0  0  0
   40.5510   25.8200    7.7540   N 0  0  0  0  0  0  0  0  0  0  0  0
   36.3220   21.9960   12.9650   C 0  0  0  0  0  0  0  0  0  0  0  0
   35.4060   21.3600   13.5000   O 0  0  0  0  0  0  0  0  0  0  0  0
   37.4730   22.2240   13.6370   N 0  0  0  0  0  0  0  0  0  0  0  0
  6  5  2  0  0  0  0
  5  4  1  0  0  0  0
  5  8  1  0  0  0  0
 48 49  2  0  0  0  0
 40 48  1  0  0  0  0
 48 50  1  0  0  0  0
 39 40  1  0  0  0  0
 41 40  1  0  0  0  0
 42 41  1  0  0  0  0
 43 42  1  0  0  0  0
 44 43  1  0  0  0  0
 45 44  1  0  0  0  0
 47 45  2  0  0  0  0
 45 46  1  0  0  0  0
 37 39  1  0  0  0  0
 29 37  1  0  0  0  0
 37 38  2  0  0  0  0
 28 29  1  0  0  0  0
 29 30  1  0  0  0  0
 30 31  1  0  0  0  0
 31 32  1  0  0  0  0
 32 33  1  0  0  0  0
 33 34  1  0  0  0  0
 36 34  2  0  0  0  0
 34 35  1  0  0  0  0
 20 28  1  0  0  0  0
 21 20  2  0  0  0  0
 22 20  1  0  0  0  0
 23 22  1  0  0  0  0
 23 24  1  0  0  0  0
 24 25  1  0  0  0  0
 25 26  1  0  0  0  0
 27 26  1  0  0  0  0
 15 27  1  0  0  0  0
 11 15  2  0  0  0  0
 15 18  1  0  0  0  0
 14 18  1  0  0  0  0
 18 16  1  0  0  0  0
 14 19  1  0  0  0  0
 10 19  1  0  0  0  0
 19 17  1  0  0  0  0
 17 13  1  0  0  0  0
 17 16  1  0  0  0  0
 16 12  1  0  0  0  0
  4 10  1  0  0  0  0
 10  9  1  0  0  0  0
  3  4  2  0  0  0  0
  8  9  2  0  0  0  0
  2  3  1  0  0  0  0
  1  2  2  0  0  0  0
  1  6  1  0  0  0  0
  7  6  1  0  0  0  0
M  END
>  <InstanceId>
3BWJ_ARX_A_351

>  <ChemCompId>
ARX

>  <PdbId>
3BWJ

>  <ChainId>
A

>  <ResidueNumber>
351

>  <InsertionCode>


>  <Model>
1

>  <AltIds>


>  <MissingHeavyAtoms>
0

>  <ObservedFormula>
C28 N15 O7

>  <Name>
(2S,3S,4R,5R)-5-(6-amino-9H-purin-9-yl)-N-(6-{[(1R)-4-carbamimidamido-1-{[(1R)-4-carbamimidamido-1-carbamoylbutyl]carbamoyl}butyl]amino}-6-oxohexyl)-3,4-dihydroxytetrahydrofuran-2-carboxamide

>  <SystematicName>
(2S,3S,4R,5R)-5-(6-aminopurin-9-yl)-N-[6-[[(2R)-1-[[(2R)-1-azanyl-5-carbamimidamido-1-oxo-pentan-2-yl]amino]-5-carbamimidamido-1-oxo-pentan-2-yl]amino]-6-oxo-hexyl]-3,4-dihydroxy-oxolane-2-carboxamide

>  <Synonyms>
ARC-1034

>  <Type>
peptide-like

>  <Formula>
C28 H47 N15 O7

>  <MolecularWeight>
705.769

>  <ModifiedDate>
2012-01-05

>  <Parent>


>  <OneLetterCode>


>  <SubcomponentList>
44A ACA DAR DAR NH2

>  <AmbiguousFlag>
N

>  <InChI>
InChI=1S/C28H47N15O7/c29-21-17-23(39-12-38-21)43(13-40-17)26-19(46)18(45)20(50-26)25(49)35-9-3-1-2-8-16(44)41-15(7-5-11-37-28(33)34)24(48)42-14(22(30)47)6-4-10-36-27(31)32/h12-15,18-20,26,45-46H,1-11H2,(H2,30,47)(H,35,49)(H,41,44)(H,42,48)(H2,29,38,39)(H4,31,32,36)(H4,33,34,37)/t14-,15-,18+,19-,20+,26-/m1/s1

>  <InChIKey>
KFJBBCJEBVHMMY-KRNUZZCISA-N

>  <SMILES>
[H]/N=C(\N)/NCCC[C@H](C(=O)N)NC(=O)[C@@H](CCCN/C(=N/[H])/N)NC(=O)CCCCCNC(=O)[C@@H]1[C@H]([C@H]([C@@H](O1)n2cnc3c2ncnc3N)O)O

$$$$
