2A14_SAH_A_4001
  RCSB PDB08012016343D
Coordinates from PDB:2A14:A:4001 Model:1 without hydrogens
 26 28  0  0  0  0            999 V2000
   18.6650   40.4080    7.5850   N 0  0  0  0  0  0  0  0  0  0  0  0
   19.8600   39.6850    8.1230   C 0  0  0  0  0  0  0  0  0  0  0  0
   21.0470   40.6200    8.4200   C 0  0  0  0  0  0  0  0  0  0  0  0
   20.8660   41.6720    9.5290   C 0  0  0  0  0  0  0  0  0  0  0  0
   22.4720   42.3730   10.0020   S 0  0  0  0  0  0  0  0  0  0  0  0
   19.4580   38.7810    9.3020   C 0  0  0  0  0  0  0  0  0  0  0  0
   18.2580   38.5000    9.4550   O 0  0  0  0  0  0  0  0  0  0  0  0
   20.3010   38.3090   10.0770   O 0  0  0  0  0  0  0  0  0  0  0  0
   22.2510   44.1150    9.5370   C 0  0  0  0  0  0  0  0  0  0  0  0
   22.3030   44.3790    8.0350   C 0  0  0  0  0  0  0  0  0  0  0  0
   22.0280   45.7600    7.8240   O 0  0  0  0  0  0  0  0  0  0  0  0
   23.6620   44.1040    7.3730   C 0  0  0  0  0  0  0  0  0  0  0  0
   23.4900   43.1180    6.3710   O 0  0  0  0  0  0  0  0  0  0  0  0
   24.0720   45.4500    6.7810   C 0  0  0  0  0  0  0  0  0  0  0  0
   24.7760   45.3980    5.5510   O 0  0  0  0  0  0  0  0  0  0  0  0
   22.6970   46.0970    6.6240   C 0  0  0  0  0  0  0  0  0  0  0  0
   22.7210   47.5470    6.4220   N 0  0  0  0  0  0  0  0  0  0  0  0
   23.5110   48.4940    7.0180   C 0  0  0  0  0  0  0  0  0  0  0  0
   23.1790   49.7030    6.5120   N 0  0  0  0  0  0  0  0  0  0  0  0
   22.1770   49.5520    5.6150   C 0  0  0  0  0  0  0  0  0  0  0  0
   21.4630   50.4500    4.8180   C 0  0  0  0  0  0  0  0  0  0  0  0
   21.7140   51.7710    4.8460   N 0  0  0  0  0  0  0  0  0  0  0  0
   20.4740   49.9560    4.0020   N 0  0  0  0  0  0  0  0  0  0  0  0
   20.1930   48.6000    3.9460   C 0  0  0  0  0  0  0  0  0  0  0  0
   20.9050   47.7190    4.7350   N 0  0  0  0  0  0  0  0  0  0  0  0
   21.8770   48.1910    5.5540   C 0  0  0  0  0  0  0  0  0  0  0  0
  1  2  1  0  0  0  0
  2  3  1  0  0  0  0
  2  6  1  0  0  0  0
  3  4  1  0  0  0  0
  4  5  1  0  0  0  0
  5  9  1  0  0  0  0
  6  7  2  0  0  0  0
  6  8  1  0  0  0  0
  9 10  1  0  0  0  0
 10 11  1  0  0  0  0
 10 12  1  0  0  0  0
 11 16  1  0  0  0  0
 12 13  1  0  0  0  0
 12 14  1  0  0  0  0
 14 15  1  0  0  0  0
 14 16  1  0  0  0  0
 16 17  1  0  0  0  0
 17 18  1  0  0  0  0
 17 26  1  0  0  0  0
 18 19  2  0  0  0  0
 19 20  1  0  0  0  0
 20 21  1  0  0  0  0
 20 26  2  0  0  0  0
 21 22  1  0  0  0  0
 21 23  2  0  0  0  0
 23 24  1  0  0  0  0
 24 25  2  0  0  0  0
 25 26  1  0  0  0  0
M  END
>  <InstanceId>
2A14_SAH_A_4001

>  <ChemCompId>
SAH

>  <PdbId>
2A14

>  <ChainId>
A

>  <ResidueNumber>
4001

>  <InsertionCode>


>  <Model>
1

>  <AltIds>


>  <MissingHeavyAtoms>
0

>  <ObservedFormula>
C14 N6 O5 S

>  <Name>
S-ADENOSYL-L-HOMOCYSTEINE

>  <SystematicName>
(2S)-2-amino-4-[[(2S,3S,4R,5R)-5-(6-aminopurin-9-yl)-3,4-dihydroxy-oxolan-2-yl]methylsulfanyl]butanoic acid

>  <Synonyms>


>  <Type>
L-PEPTIDE LINKING

>  <Formula>
C14 H20 N6 O5 S

>  <MolecularWeight>
384.411

>  <ModifiedDate>
2011-06-04

>  <Parent>
CYS

>  <OneLetterCode>
C

>  <SubcomponentList>


>  <AmbiguousFlag>
N

>  <InChI>
InChI=1S/C14H20N6O5S/c15-6(14(23)24)1-2-26-3-7-9(21)10(22)13(25-7)20-5-19-8-11(16)17-4-18-12(8)20/h4-7,9-10,13,21-22H,1-3,15H2,(H,23,24)(H2,16,17,18)/t6-,7+,9+,10+,13+/m0/s1

>  <InChIKey>
ZJUKTBDSGOFHSH-WFMPWKQPSA-N

>  <SMILES>
c1nc(c2c(n1)n(cn2)[C@H]3[C@@H]([C@@H]([C@H](O3)CSCC[C@@H](C(=O)O)N)O)O)N

$$$$
