5W44_GY6_A_302
  RCSB PDB08022003273D
Coordinates from PDB:5W44:A:302 Model:1 without hydrogens
 34 37  0  0  0  0            999 V2000
   -8.4920   79.9770   14.9900   C 0  0  0  0  0  0  0  0  0  0  0  0
   -9.8150   80.2900   16.8560   C 0  0  0  0  0  0  0  0  0  0  0  0
  -10.2240   78.9870   16.8270   C 0  0  0  0  0  0  0  0  0  0  0  0
   -9.7350   78.1250   15.8400   C 0  0  0  0  0  0  0  0  0  0  0  0
  -10.3100   81.2240   17.9320   C 0  0  0  0  0  0  0  0  0  0  0  0
   -9.9280   83.3360   19.0640   C 0  0  0  0  0  0  0  0  0  0  0  0
   -9.2770   84.6770   18.8480   C 0  0  0  0  0  0  0  0  0  0  0  0
   -5.9100   81.6140   15.3550   C 0  0  0  0  0  0  0  0  0  0  0  0
   -6.0540   80.4230   14.4230   C 0  0  0  0  0  0  0  0  0  0  0  0
   -7.5200   80.5540   13.9870   C 0  0  0  0  0  0  0  0  0  0  0  0
   -6.5830   82.7220   14.5670   C 0  0  0  0  0  0  0  0  0  0  0  0
   -8.6090   82.6230   13.1280   C 0  0  0  0  0  0  0  0  0  0  0  0
   -8.2570   86.8630   12.5290   C 0  0  0  0  0  0  0  0  0  0  0  0
   -9.0860   86.3870   13.5170   C 0  0  0  0  0  0  0  0  0  0  0  0
   -9.2010   85.0230   13.7120   C 0  0  0  0  0  0  0  0  0  0  0  0
   -8.5000   84.1070   12.9280   C 0  0  0  0  0  0  0  0  0  0  0  0
   -7.6670   84.6300   11.9400   C 0  0  0  0  0  0  0  0  0  0  0  0
   -7.5450   85.9930   11.7360   C 0  0  0  0  0  0  0  0  0  0  0  0
   -5.1920   84.3610   17.5560   C 0  0  0  0  0  0  0  0  0  0  0  0
   -5.6820   83.4860   18.4980   C 0  0  0  0  0  0  0  0  0  0  0  0
   -6.9990   83.5820   18.9190   C 0  0  0  0  0  0  0  0  0  0  0  0
   -7.8370   84.5610   18.4060   C 0  0  0  0  0  0  0  0  0  0  0  0
   -7.3290   85.4310   17.4550   C 0  0  0  0  0  0  0  0  0  0  0  0
   -6.0120   85.3320   17.0350   C 0  0  0  0  0  0  0  0  0  0  0  0
   -8.9540   80.7830   15.9500   N 0  0  0  0  0  0  0  0  0  0  0  0
   -8.8590   78.6660   14.9270   N 0  0  0  0  0  0  0  0  0  0  0  0
   -9.8450   82.4730   17.8900   N 0  0  0  0  0  0  0  0  0  0  0  0
   -7.6400   82.0140   13.8250   N 0  0  0  0  0  0  0  0  0  0  0  0
  -11.0710   78.4470   17.7150   O 0  0  0  0  0  0  0  0  0  0  0  0
  -10.0510   76.9320   15.7410   O 0  0  0  0  0  0  0  0  0  0  0  0
  -11.0400   80.8140   18.8320   O 0  0  0  0  0  0  0  0  0  0  0  0
   -9.5630   81.9960   12.6710   O 0  0  0  0  0  0  0  0  0  0  0  0
  -10.2590   84.4710   14.9730  Cl 0  0  0  0  0  0  0  0  0  0  0  0
   -6.7550   83.5640   10.9160  Cl 0  0  0  0  0  0  0  0  0  0  0  0
 34 17  1  0  0  0  0
 18 17  2  0  0  0  0
 18 13  1  0  0  0  0
 17 16  1  0  0  0  0
 32 12  2  0  0  0  0
 13 14  2  0  0  0  0
 16 12  1  0  0  0  0
 16 15  2  0  0  0  0
 12 28  1  0  0  0  0
 14 15  1  0  0  0  0
 28 10  1  0  0  0  0
 28 11  1  0  0  0  0
 15 33  1  0  0  0  0
 10  9  1  0  0  0  0
 10  1  1  0  0  0  0
  9  8  1  0  0  0  0
 11  8  1  0  0  0  0
 26  1  1  0  0  0  0
 26  4  1  0  0  0  0
  1 25  2  0  0  0  0
 30  4  2  0  0  0  0
  4  3  1  0  0  0  0
 25  2  1  0  0  0  0
  3  2  2  0  0  0  0
  3 29  1  0  0  0  0
  2  5  1  0  0  0  0
 24 19  2  0  0  0  0
 24 23  1  0  0  0  0
 19 20  1  0  0  0  0
 23 22  2  0  0  0  0
 27  5  1  0  0  0  0
 27  6  1  0  0  0  0
  5 31  2  0  0  0  0
 20 21  2  0  0  0  0
 22 21  1  0  0  0  0
 22  7  1  0  0  0  0
  6  7  1  0  0  0  0
M  END
>  <InstanceId>
5W44_GY6_A_302

>  <ChemCompId>
GY6

>  <PdbId>
5W44

>  <ChainId>
A

>  <ResidueNumber>
302

>  <InsertionCode>


>  <Model>
1

>  <AltIds>


>  <MissingHeavyAtoms>
0

>  <ObservedFormula>
C24 N4 O4 Cl2

>  <Name>
2-[(2S)-1-(2,6-dichlorobenzene-1-carbonyl)pyrrolidin-2-yl]-5-hydroxy-6-oxo-N-(2-phenylethyl)-1,6-dihydropyrimidine-4-carboxamide

>  <SystematicName>
2-[(2~{S})-1-[2,6-bis(chloranyl)phenyl]carbonylpyrrolidin-2-yl]-5-oxidanyl-6-oxidanylidene-~{N}-(2-phenylethyl)-1~{H}-pyrimidine-4-carboxamide

>  <Synonyms>


>  <Type>
NON-POLYMER

>  <Formula>
C24 H22 Cl2 N4 O4

>  <MolecularWeight>
501.362

>  <ModifiedDate>
2017-12-22

>  <Parent>


>  <OneLetterCode>


>  <SubcomponentList>


>  <AmbiguousFlag>
N

>  <InChI>
InChI=1S/C24H22Cl2N4O4/c25-15-8-4-9-16(26)18(15)24(34)30-13-5-10-17(30)21-28-19(20(31)23(33)29-21)22(32)27-12-11-14-6-2-1-3-7-14/h1-4,6-9,17,31H,5,10-13H2,(H,27,32)(H,28,29,33)/t17-/m0/s1

>  <InChIKey>
AEFIMSPWYSLTJK-KRWDZBQOSA-N

>  <SMILES>
c1ccc(cc1)CCNC(=O)C2=C(C(=O)NC(=N2)[C@@H]3CCCN3C(=O)c4c(cccc4Cl)Cl)O

$$$$
