2EWS_ANP_A_1001
  RCSB PDB08012016563D
Coordinates from PDB:2EWS:A:1001 Model:1 without hydrogens
 31 33  0  0  0  0            999 V2000
   19.1260   24.5240   -0.4790   P 0  0  0  0  0  0  0  0  0  0  0  0
   19.5070   25.4890    0.6100   O 0  0  0  0  0  0  0  0  0  0  0  0
   18.6610   23.2060    0.0600   O 0  0  0  0  0  0  0  0  0  0  0  0
   20.3230   24.1550   -1.3870   O 0  0  0  0  0  0  0  0  0  0  0  0
   17.1640   24.8150   -2.7860   P 0  0  0  0  0  0  0  0  0  0  0  0
   17.7180   23.6320   -3.3500   O 0  0  0  0  0  0  0  0  0  0  0  0
   15.6650   24.6830   -2.5850   O 0  0  0  0  0  0  0  0  0  0  0  0
   17.8700   25.2100   -1.3140   N 0  0  0  0  0  0  0  0  0  0  0  0
   17.1730   26.2570   -5.3440   P 0  0  0  0  0  0  0  0  0  0  0  0
   18.5210   26.1740   -6.1390   O 0  0  0  0  0  0  0  0  0  0  0  0
   16.1420   25.2760   -5.8070   O 0  0  0  0  0  0  0  0  0  0  0  0
   17.4840   26.0520   -3.7800   O 0  0  0  0  0  0  0  0  0  0  0  0
   16.6320   27.7660   -5.4630   O 0  0  0  0  0  0  0  0  0  0  0  0
   15.4000   28.0970   -4.7860   C 0  0  0  0  0  0  0  0  0  0  0  0
   15.0090   29.5140   -5.2090   C 0  0  0  0  0  0  0  0  0  0  0  0
   14.6320   29.4450   -6.5960   O 0  0  0  0  0  0  0  0  0  0  0  0
   13.7730   30.0210   -4.5170   C 0  0  0  0  0  0  0  0  0  0  0  0
   14.1130   30.6520   -3.2790   O 0  0  0  0  0  0  0  0  0  0  0  0
   13.1940   30.8980   -5.5660   C 0  0  0  0  0  0  0  0  0  0  0  0
   13.7740   32.2250   -5.4620   O 0  0  0  0  0  0  0  0  0  0  0  0
   13.5820   30.2670   -6.8540   C 0  0  0  0  0  0  0  0  0  0  0  0
   12.5270   29.5350   -7.6100   N 0  0  0  0  0  0  0  0  0  0  0  0
   12.5850   29.0810   -8.8600   C 0  0  0  0  0  0  0  0  0  0  0  0
   11.4750   28.4930   -9.2730   N 0  0  0  0  0  0  0  0  0  0  0  0
   10.6220   28.5610   -8.2050   C 0  0  0  0  0  0  0  0  0  0  0  0
    9.2450   28.1130   -8.0040   C 0  0  0  0  0  0  0  0  0  0  0  0
    8.4450   27.5050   -8.7970   N 0  0  0  0  0  0  0  0  0  0  0  0
    8.7920   28.4060   -6.7540   N 0  0  0  0  0  0  0  0  0  0  0  0
    9.5040   29.0520   -5.7690   C 0  0  0  0  0  0  0  0  0  0  0  0
   10.7450   29.4670   -5.9340   N 0  0  0  0  0  0  0  0  0  0  0  0
   11.2640   29.2070   -7.1690   C 0  0  0  0  0  0  0  0  0  0  0  0
  1  2  2  0  0  0  0
  1  3  1  0  0  0  0
  1  4  1  0  0  0  0
  1  8  1  0  0  0  0
  5  6  2  0  0  0  0
  5  7  1  0  0  0  0
  5  8  1  0  0  0  0
  5 12  1  0  0  0  0
  9 10  2  0  0  0  0
  9 11  1  0  0  0  0
  9 12  1  0  0  0  0
  9 13  1  0  0  0  0
 13 14  1  0  0  0  0
 14 15  1  0  0  0  0
 15 16  1  0  0  0  0
 15 17  1  0  0  0  0
 16 21  1  0  0  0  0
 17 18  1  0  0  0  0
 17 19  1  0  0  0  0
 19 20  1  0  0  0  0
 19 21  1  0  0  0  0
 21 22  1  0  0  0  0
 22 23  1  0  0  0  0
 22 31  1  0  0  0  0
 23 24  2  0  0  0  0
 24 25  1  0  0  0  0
 25 26  1  0  0  0  0
 25 31  2  0  0  0  0
 26 27  1  0  0  0  0
 26 28  2  0  0  0  0
 28 29  1  0  0  0  0
 29 30  2  0  0  0  0
 30 31  1  0  0  0  0
M  END
>  <InstanceId>
2EWS_ANP_A_1001

>  <ChemCompId>
ANP

>  <PdbId>
2EWS

>  <ChainId>
A

>  <ResidueNumber>
1001

>  <InsertionCode>


>  <Model>
1

>  <AltIds>


>  <MissingHeavyAtoms>
0

>  <ObservedFormula>
C10 N6 O12 P3

>  <Name>
PHOSPHOAMINOPHOSPHONIC ACID-ADENYLATE ESTER

>  <SystematicName>
[[[[(2R,3S,4R,5R)-5-(6-aminopurin-9-yl)-3,4-dihydroxy-oxolan-2-yl]methoxy-hydroxy-phosphoryl]oxy-hydroxy-phosphoryl]amino]phosphonic acid

>  <Synonyms>


>  <Type>
NON-POLYMER

>  <Formula>
C10 H17 N6 O12 P3

>  <MolecularWeight>
506.196

>  <ModifiedDate>
2011-06-04

>  <Parent>


>  <OneLetterCode>


>  <SubcomponentList>


>  <AmbiguousFlag>
N

>  <InChI>
InChI=1S/C10H17N6O12P3/c11-8-5-9(13-2-12-8)16(3-14-5)10-7(18)6(17)4(27-10)1-26-31(24,25)28-30(22,23)15-29(19,20)21/h2-4,6-7,10,17-18H,1H2,(H,24,25)(H2,11,12,13)(H4,15,19,20,21,22,23)/t4-,6-,7-,10-/m1/s1

>  <InChIKey>
PVKSNHVPLWYQGJ-KQYNXXCUSA-N

>  <SMILES>
c1nc(c2c(n1)n(cn2)[C@H]3[C@@H]([C@@H]([C@H](O3)CO[P@](=O)(O)O[P@@](=O)(NP(=O)(O)O)O)O)O)N

$$$$
