5VCZ_XZN_A_401
  RCSB PDB08022003203D
Coordinates from PDB:5VCZ:A:401 Model:1 without hydrogens
 36 39  0  0  0  0            999 V2000
    8.7300   -5.7280   -1.4580   C 0  0  0  0  0  0  0  0  0  0  0  0
    0.7660   -0.4320   -4.7380   O 0  0  0  0  0  0  0  0  0  0  0  0
   14.1400   -4.2100   -2.1030   C 0  0  0  0  0  0  0  0  0  0  0  0
    4.0190    1.1640   -1.5230   N 0  0  0  0  0  0  0  0  0  0  0  0
    0.3080   -2.1490   -2.4080  Cl 0  0  0  0  0  0  0  0  0  0  0  0
    3.2700    0.5410   -5.9620  Cl 0  0  0  0  0  0  0  0  0  0  0  0
    5.0870    0.7690   -1.6250   C 0  0  0  0  0  0  0  0  0  0  0  0
    7.3650    1.1080   -1.6690   C 0  0  0  0  0  0  0  0  0  0  0  0
   10.1790   -1.1520   -1.5830   C 0  0  0  0  0  0  0  0  0  0  0  0
    8.0830   -3.0220   -1.7740   C 0  0  0  0  0  0  0  0  0  0  0  0
   13.9810   -3.0590   -1.0970   C 0  0  0  0  0  0  0  0  0  0  0  0
   12.7590   -2.1830   -1.4340   C 0  0  0  0  0  0  0  0  0  0  0  0
   17.6880   -8.6770   -1.6580   C 0  0  0  0  0  0  0  0  0  0  0  0
   15.5610   -5.6960   -0.5280   C 0  0  0  0  0  0  0  0  0  0  0  0
   15.0900   -6.2650   -2.7870   C 0  0  0  0  0  0  0  0  0  0  0  0
   16.8220   -6.5940   -0.5990   C 0  0  0  0  0  0  0  0  0  0  0  0
   16.3820   -7.0530   -2.9020   C 0  0  0  0  0  0  0  0  0  0  0  0
    8.6110    0.6360   -1.6400   N 0  0  0  0  0  0  0  0  0  0  0  0
    5.3740   -2.0010   -1.9980   N 0  0  0  0  0  0  0  0  0  0  0  0
    9.7670   -4.7570   -1.6520   O 0  0  0  0  0  0  0  0  0  0  0  0
   11.6370   -3.0630   -1.4660   O 0  0  0  0  0  0  0  0  0  0  0  0
    1.8910   -0.8170   -4.0880   C 0  0  0  0  0  0  0  0  0  0  0  0
    1.8190   -1.6220   -2.9690   C 0  0  0  0  0  0  0  0  0  0  0  0
    4.2890   -0.8270   -3.9080   C 0  0  0  0  0  0  0  0  0  0  0  0
    6.2750    0.2420   -1.7330   C 0  0  0  0  0  0  0  0  0  0  0  0
    4.2520   -1.6510   -2.7590   C 0  0  0  0  0  0  0  0  0  0  0  0
    9.3970   -3.4490   -1.6960   C 0  0  0  0  0  0  0  0  0  0  0  0
   10.4110   -2.5320   -1.5840   C 0  0  0  0  0  0  0  0  0  0  0  0
    6.4580   -1.1540   -1.8250   C 0  0  0  0  0  0  0  0  0  0  0  0
    8.8560   -0.7020   -1.6550   C 0  0  0  0  0  0  0  0  0  0  0  0
    7.7820   -1.6320   -1.7690   C 0  0  0  0  0  0  0  0  0  0  0  0
   15.3210   -5.1160   -1.8790   N 0  0  0  0  0  0  0  0  0  0  0  0
    2.9800   -2.0300   -2.3250   C 0  0  0  0  0  0  0  0  0  0  0  0
   16.5850   -7.6740   -1.5950   N 0  0  0  0  0  0  0  0  0  0  0  0
    0.2490    0.8360   -4.2420   C 0  0  0  0  0  0  0  0  0  0  0  0
    3.1330   -0.4120   -4.5570   C 0  0  0  0  0  0  0  0  0  0  0  0
  1 20  1  0  0  0  0
  2 22  1  0  0  0  0
  2 35  1  0  0  0  0
  3 11  1  0  0  0  0
  3 32  1  0  0  0  0
  4  7  3  0  0  0  0
  5 23  1  0  0  0  0
  6 36  1  0  0  0  0
  7 25  1  0  0  0  0
  8 18  2  0  0  0  0
  8 25  1  0  0  0  0
  9 28  2  0  0  0  0
  9 30  1  0  0  0  0
 10 27  2  0  0  0  0
 10 31  1  0  0  0  0
 11 12  1  0  0  0  0
 12 21  1  0  0  0  0
 13 34  1  0  0  0  0
 15 17  1  0  0  0  0
 15 32  1  0  0  0  0
 14 16  1  0  0  0  0
 14 32  1  0  0  0  0
 17 34  1  0  0  0  0
 16 34  1  0  0  0  0
 18 30  1  0  0  0  0
 19 26  1  0  0  0  0
 19 29  1  0  0  0  0
 20 27  1  0  0  0  0
 21 28  1  0  0  0  0
 22 23  1  0  0  0  0
 22 36  2  0  0  0  0
 23 33  2  0  0  0  0
 24 26  2  0  0  0  0
 24 36  1  0  0  0  0
 25 29  2  0  0  0  0
 26 33  1  0  0  0  0
 27 28  1  0  0  0  0
 29 31  1  0  0  0  0
 30 31  2  0  0  0  0
M  END
>  <InstanceId>
5VCZ_XZN_A_401

>  <ChemCompId>
XZN

>  <PdbId>
5VCZ

>  <ChainId>
A

>  <ResidueNumber>
401

>  <InsertionCode>


>  <Model>
1

>  <AltIds>


>  <MissingHeavyAtoms>
0

>  <ObservedFormula>
C26 N5 O3 Cl2

>  <Name>
4-[(3,5-DICHLORO-4-METHOXYPHENYL)AMINO]-6-METHOXY-7-[3-(4-METHYLPIPERAZIN-1-YL)PROPOXY]QUINOLINE-3-CARBONITRILE

>  <SystematicName>
4-[[3,5-bis(chloranyl)-4-methoxy-phenyl]amino]-6-methoxy-7-[3-(4-methylpiperazin-1-yl)propoxy]quinoline-3-carbonitrile

>  <Synonyms>
BOSUTINIB ISOFORM 1

>  <Type>
non-polymer

>  <Formula>
C26 H29 Cl2 N5 O3

>  <MolecularWeight>
530.446

>  <ModifiedDate>
2020-06-17

>  <Parent>


>  <OneLetterCode>


>  <SubcomponentList>


>  <AmbiguousFlag>
N

>  <InChI>
InChI=1S/C26H29Cl2N5O3/c1-32-6-8-33(9-7-32)5-4-10-36-24-14-22-19(13-23(24)34-2)25(17(15-29)16-30-22)31-18-11-20(27)26(35-3)21(28)12-18/h11-14,16H,4-10H2,1-3H3,(H,30,31)

>  <InChIKey>
YCLIWTLPTXAGPQ-UHFFFAOYSA-N

>  <SMILES>
CN1CCN(CC1)CCCOc2cc3c(cc2OC)c(c(cn3)C#N)Nc4cc(c(c(c4)Cl)OC)Cl

$$$$
