4HT2_V50_A_302
  RCSB PDB08012021573D
Coordinates from PDB:4HT2:A:302 Model:1 without hydrogens
 23 24  0  0  0  0            999 V2000
   -2.6700   17.4770   -4.8090   F 0  0  0  0  0  0  0  0  0  0  0  0
   -3.8900   17.8670   -5.1030   C 0  0  0  0  0  0  0  0  0  0  0  0
   -4.9100   16.9730   -5.5500   C 0  0  0  0  0  0  0  0  0  0  0  0
   -4.6990   15.2660   -5.9980   S 0  0  0  0  0  0  0  0  0  0  0  0
   -4.7500   15.3340   -7.4500   O 0  0  0  0  0  0  0  0  0  0  0  0
   -3.2670   14.7840   -5.5360   N 0  0  0  0  0  0  0  0  0  0  0  0
   -5.6910   14.5580   -5.2130   O 0  0  0  0  0  0  0  0  0  0  0  0
   -6.1860   17.5110   -5.9000   C 0  0  0  0  0  0  0  0  0  0  0  0
   -7.2020   16.7040   -6.2740   F 0  0  0  0  0  0  0  0  0  0  0  0
   -6.4790   18.8830   -5.7100   C 0  0  0  0  0  0  0  0  0  0  0  0
   -7.7030   19.3470   -5.9430   F 0  0  0  0  0  0  0  0  0  0  0  0
   -4.2060   19.2080   -5.0250   C 0  0  0  0  0  0  0  0  0  0  0  0
   -3.1740   19.9680   -4.6880   F 0  0  0  0  0  0  0  0  0  0  0  0
   -5.4560   19.7520   -5.3580   C 0  0  0  0  0  0  0  0  0  0  0  0
   -5.6340   21.4850   -5.3710   S 0  0  0  0  0  0  0  0  0  0  0  0
   -6.8710   21.9100   -4.2420   C 0  0  0  0  0  0  0  0  0  0  0  0
   -7.3330   21.0790   -3.3080   N 0  0  0  0  0  0  0  0  0  0  0  0
   -8.2770   21.6070   -2.4970   C 0  0  0  0  0  0  0  0  0  0  0  0
   -8.7350   20.6320   -1.4310   C 0  0  0  0  0  0  0  0  0  0  0  0
   -8.8210   22.8770   -2.5940   C 0  0  0  0  0  0  0  0  0  0  0  0
   -8.2450   23.6200   -3.6510   C 0  0  0  0  0  0  0  0  0  0  0  0
   -7.2730   23.1710   -4.4850   N 0  0  0  0  0  0  0  0  0  0  0  0
   -8.7010   25.0550   -3.9410   C 0  0  0  0  0  0  0  0  0  0  0  0
 19 18  1  0  0  0  0
 18 17  2  0  0  0  0
 18 20  1  0  0  0  0
 17 16  1  0  0  0  0
 20 21  2  0  0  0  0
 15 16  1  0  0  0  0
 15 14  1  0  0  0  0
 16 22  2  0  0  0  0
 11 10  1  0  0  0  0
 21 22  1  0  0  0  0
 21 23  1  0  0  0  0
 10 14  2  0  0  0  0
 10  8  1  0  0  0  0
 14 12  1  0  0  0  0
 13 12  1  0  0  0  0
 12  2  2  0  0  0  0
  8  9  1  0  0  0  0
  8  3  2  0  0  0  0
  2  3  1  0  0  0  0
  2  1  1  0  0  0  0
  3  4  1  0  0  0  0
  6  4  1  0  0  0  0
  7  4  2  0  0  0  0
  4  5  2  0  0  0  0
M  END
>  <InstanceId>
4HT2_V50_A_302

>  <ChemCompId>
V50

>  <PdbId>
4HT2

>  <ChainId>
A

>  <ResidueNumber>
302

>  <InsertionCode>


>  <Model>
1

>  <AltIds>


>  <MissingHeavyAtoms>
0

>  <ObservedFormula>
C12 N3 O2 S2 F4

>  <Name>
4-[(4,6-dimethylpyrimidin-2-yl)thio]-2,3,5,6-tetrafluorobenzenesulfonamide

>  <SystematicName>
4-(4,6-dimethylpyrimidin-2-yl)sulfanyl-2,3,5,6-tetrakis(fluoranyl)benzenesulfonamide

>  <Synonyms>


>  <Type>
NON-POLYMER

>  <Formula>
C12 H9 F4 N3 O2 S2

>  <MolecularWeight>
367.342

>  <ModifiedDate>
2013-04-05

>  <Parent>


>  <OneLetterCode>


>  <SubcomponentList>


>  <AmbiguousFlag>
N

>  <InChI>
InChI=1S/C12H9F4N3O2S2/c1-4-3-5(2)19-12(18-4)22-10-6(13)8(15)11(23(17,20)21)9(16)7(10)14/h3H,1-2H3,(H2,17,20,21)

>  <InChIKey>
PKQIZTGHFBCYEN-UHFFFAOYSA-N

>  <SMILES>
Cc1cc(nc(n1)Sc2c(c(c(c(c2F)F)S(=O)(=O)N)F)F)C

$$$$
