5AM7_38O_A_1000
  RCSB PDB08022000473D
Coordinates from PDB:5AM7:A:1000 Model:1 without hydrogens
 29 33  0  0  0  0            999 V2000
  221.1200    2.4580   31.8530   C 0  0  0  0  0  0  0  0  0  0  0  0
  221.4130    2.7580   29.4910   C 0  0  0  0  0  0  0  0  0  0  0  0
  220.9230    2.3010   28.1230   C 0  0  0  0  0  0  0  0  0  0  0  0
  218.5620    2.4750   29.0970   C 0  0  0  0  0  0  0  0  0  0  0  0
  219.2260    2.8590   30.4150   C 0  0  0  0  0  0  0  0  0  0  0  0
  219.0890    3.2680   26.8140   C 0  0  0  0  0  0  0  0  0  0  0  0
  216.9120    3.7860   22.9210   C 0  0  0  0  0  0  0  0  0  0  0  0
  217.7250    4.8110   23.2450   N 0  0  0  0  0  0  0  0  0  0  0  0
  219.1810    5.1310   25.2660   C 0  0  0  0  0  0  0  0  0  0  0  0
  219.5800    4.5190   26.4510   C 0  0  0  0  0  0  0  0  0  0  0  0
  216.0740    3.6230   21.7030   C 0  0  0  0  0  0  0  0  0  0  0  0
  216.1910    4.6360   20.6230   C 0  0  0  0  0  0  0  0  0  0  0  0
  215.3960    5.3590   18.2370   C 0  0  0  0  0  0  0  0  0  0  0  0
  214.5770    5.0890   17.1330   C 0  0  0  0  0  0  0  0  0  0  0  0
  213.7210    3.9830   17.1360   C 0  0  0  0  0  0  0  0  0  0  0  0
  214.9600    1.6500   22.4110   O 0  0  0  0  0  0  0  0  0  0  0  0
  220.5350    2.2030   30.5290   N 0  0  0  0  0  0  0  0  0  0  0  0
  219.5220    2.6940   28.0150   N 0  0  0  0  0  0  0  0  0  0  0  0
  218.1820    2.5830   26.0060   C 0  0  0  0  0  0  0  0  0  0  0  0
  217.7530    3.1500   24.8010   C 0  0  0  0  0  0  0  0  0  0  0  0
  216.9250    2.7660   23.8110   N 0  0  0  0  0  0  0  0  0  0  0  0
  218.2840    4.4830   24.4260   C 0  0  0  0  0  0  0  0  0  0  0  0
  217.0490    5.6690   20.7560   N 0  0  0  0  0  0  0  0  0  0  0  0
  215.3580    4.4430   19.4020   C 0  0  0  0  0  0  0  0  0  0  0  0
  216.2120    6.4340   18.2600   F 0  0  0  0  0  0  0  0  0  0  0  0
  213.6500    3.0910   18.2120   C 0  0  0  0  0  0  0  0  0  0  0  0
  214.4370    3.2820   19.3520   C 0  0  0  0  0  0  0  0  0  0  0  0
  214.3930    2.4140   20.3750   N 0  0  0  0  0  0  0  0  0  0  0  0
  215.1030    2.5200   21.5180   C 0  0  0  0  0  0  0  0  0  0  0  0
  3  2  1  0  0  0  0
  3 18  1  0  0  0  0
  2 17  1  0  0  0  0
 25 13  1  0  0  0  0
 17  1  1  0  0  0  0
 17  5  1  0  0  0  0
 18  4  1  0  0  0  0
 18  6  1  0  0  0  0
 23 12  1  0  0  0  0
  4  5  1  0  0  0  0
 19  6  2  0  0  0  0
 19 20  1  0  0  0  0
  6 10  1  0  0  0  0
 13 14  2  0  0  0  0
 13 24  1  0  0  0  0
 21 20  1  0  0  0  0
 21  7  2  0  0  0  0
 20 22  2  0  0  0  0
 14 15  1  0  0  0  0
 12 24  1  0  0  0  0
 12 11  2  0  0  0  0
 10  9  2  0  0  0  0
 24 27  2  0  0  0  0
  7 11  1  0  0  0  0
  7  8  1  0  0  0  0
 22  9  1  0  0  0  0
 22  8  1  0  0  0  0
 11 29  1  0  0  0  0
 15 26  2  0  0  0  0
 27 26  1  0  0  0  0
 27 28  1  0  0  0  0
 29 28  1  0  0  0  0
 29 16  2  0  0  0  0
M  END
>  <InstanceId>
5AM7_38O_A_1000

>  <ChemCompId>
38O

>  <PdbId>
5AM7

>  <ChainId>
A

>  <ResidueNumber>
1000

>  <InsertionCode>


>  <Model>
1

>  <AltIds>


>  <MissingHeavyAtoms>
0

>  <ObservedFormula>
C21 N6 O F

>  <Name>
4-amino-5-fluoro-3-[5-(4-methylpiperazin-1-yl)-1H-benzimidazol-2-yl]quinolin-2(1H)-one

>  <SystematicName>
4-azanyl-5-fluoranyl-3-[5-(4-methylpiperazin-1-yl)-1H-benzimidazol-2-yl]-1H-quinolin-2-one

>  <Synonyms>
Dovitinib

>  <Type>
NON-POLYMER

>  <Formula>
C21 H21 F N6 O

>  <MolecularWeight>
392.429

>  <ModifiedDate>
2020-06-17

>  <Parent>


>  <OneLetterCode>


>  <SubcomponentList>


>  <AmbiguousFlag>
N

>  <InChI>
InChI=1S/C21H21FN6O/c1-27-7-9-28(10-8-27)12-5-6-14-16(11-12)25-20(24-14)18-19(23)17-13(22)3-2-4-15(17)26-21(18)29/h2-6,11H,7-10H2,1H3,(H,24,25)(H3,23,26,29)

>  <InChIKey>
PIQCTGMSNWUMAF-UHFFFAOYSA-N

>  <SMILES>
CN1CCN(CC1)c2ccc3c(c2)nc([nH]3)C4=C(c5c(cccc5F)NC4=O)N

$$$$
