1PPH_0ZG_E_1
  RCSB PDB08012015443D
Coordinates from PDB:1PPH:E:1 Model:1 without hydrogens
 30 32  0  0  0  0            999 V2000
   -5.9300    4.1070   23.9760   S 0  0  0  0  0  0  0  0  0  0  0  0
   -7.0380    5.0670   24.3810   O 0  0  0  0  0  0  0  0  0  0  0  0
   -6.4450    2.7280   23.5830   O 0  0  0  0  0  0  0  0  0  0  0  0
   -4.8070    4.0070   25.3830   C 0  0  0  0  0  0  0  0  0  0  0  0
   -4.4930    5.2050   26.0050   C 0  0  0  0  0  0  0  0  0  0  0  0
   -3.5280    5.2410   26.9810   C 0  0  0  0  0  0  0  0  0  0  0  0
   -2.8870    4.0670   27.3290   C 0  0  0  0  0  0  0  0  0  0  0  0
   -3.2240    2.8500   26.7350   C 0  0  0  0  0  0  0  0  0  0  0  0
   -4.2000    2.8170   25.7530   C 0  0  0  0  0  0  0  0  0  0  0  0
   -1.7820    4.1410   28.3860   C 0  0  0  0  0  0  0  0  0  0  0  0
   -1.6380    3.6540   22.8470   N 0  0  0  0  0  0  0  0  0  0  0  0
   -1.6090    2.3590   22.1590   C 0  0  0  0  0  0  0  0  0  0  0  0
   -1.2340    1.3360   23.2080   C 0  0  0  0  0  0  0  0  0  0  0  0
    0.0540    1.7490   23.9040   C 0  0  0  0  0  0  0  0  0  0  0  0
   -0.0730    3.1140   24.5260   C 0  0  0  0  0  0  0  0  0  0  0  0
   -0.3530    4.0580   23.3900   C 0  0  0  0  0  0  0  0  0  0  0  0
   -5.1570    4.7810   22.6350   N 0  0  0  0  0  0  0  0  0  0  0  0
   -3.9800    4.1220   22.0690   C 0  0  0  0  0  0  0  0  0  0  0  0
   -2.6780    4.5080   22.8020   C 0  0  0  0  0  0  0  0  0  0  0  0
   -2.5950    5.6420   23.3040   O 0  0  0  0  0  0  0  0  0  0  0  0
   -3.8870    4.4550   20.5690   C 0  0  0  0  0  0  0  0  0  0  0  0
   -3.0970    5.7160   20.1980   C 0  0  0  0  0  0  0  0  0  0  0  0
   -3.7080    6.9530   20.1380   C 0  0  0  0  0  0  0  0  0  0  0  0
   -1.7560    5.6350   19.8730   C 0  0  0  0  0  0  0  0  0  0  0  0
   -3.0700    8.1220   19.7700   C 0  0  0  0  0  0  0  0  0  0  0  0
   -1.0870    6.7790   19.5080   C 0  0  0  0  0  0  0  0  0  0  0  0
   -1.7150    8.0070   19.4520   C 0  0  0  0  0  0  0  0  0  0  0  0
   -3.7400    9.3550   19.6970   C 0  0  0  0  0  0  0  0  0  0  0  0
   -3.0570   10.4510   19.3200   N 0  0  0  0  0  0  0  0  0  0  0  0
   -5.0450    9.4360   20.0230   N 0  0  0  0  0  0  0  0  0  0  0  0
  1  2  2  0  0  0  0
  1  4  1  0  0  0  0
  4  5  2  0  0  0  0
  4  9  1  0  0  0  0
  5  6  1  0  0  0  0
  6  7  2  0  0  0  0
  7  8  1  0  0  0  0
  7 10  1  0  0  0  0
  8  9  2  0  0  0  0
 11 12  1  0  0  0  0
 11 16  1  0  0  0  0
 12 13  1  0  0  0  0
 13 14  1  0  0  0  0
 14 15  1  0  0  0  0
 15 16  1  0  0  0  0
 17 18  1  0  0  0  0
 18 19  1  0  0  0  0
 18 21  1  0  0  0  0
 19 20  2  0  0  0  0
 21 22  1  0  0  0  0
 22 23  2  0  0  0  0
 22 24  1  0  0  0  0
 23 25  1  0  0  0  0
 24 26  2  0  0  0  0
 25 27  2  0  0  0  0
 25 28  1  0  0  0  0
 26 27  1  0  0  0  0
 28 29  2  0  0  0  0
 28 30  1  0  0  0  0
  1 17  1  0  0  0  0
 11 19  1  0  0  0  0
  1  3  2  0  0  0  0
M  END
>  <InstanceId>
1PPH_0ZG_E_1

>  <ChemCompId>
0ZG

>  <PdbId>
1PPH

>  <ChainId>
E

>  <ResidueNumber>
1

>  <InsertionCode>


>  <Model>
1

>  <AltIds>


>  <MissingHeavyAtoms>
0

>  <ObservedFormula>
C22 N4 O3 S

>  <Name>
3-[(2S)-2-{[(4-methylphenyl)sulfonyl]amino}-3-oxo-3-piperidin-1-ylpropyl]benzenecarboximidamide

>  <SystematicName>
3-[(2S)-2-[(4-methylphenyl)sulfonylamino]-3-oxo-3-piperidin-1-yl-propyl]benzenecarboximidamide

>  <Synonyms>
4-TAPAP

>  <Type>
peptide-like

>  <Formula>
C22 H28 N4 O3 S

>  <MolecularWeight>
428.548

>  <ModifiedDate>
2020-06-17

>  <Parent>


>  <OneLetterCode>


>  <SubcomponentList>
TSU PIP APM

>  <AmbiguousFlag>
N

>  <InChI>
InChI=1S/C22H28N4O3S/c1-16-8-10-19(11-9-16)30(28,29)25-20(22(27)26-12-3-2-4-13-26)15-17-6-5-7-18(14-17)21(23)24/h5-11,14,20,25H,2-4,12-13,15H2,1H3,(H3,23,24)/t20-/m0/s1

>  <InChIKey>
RNNMXTSTLVYYQG-FQEVSTJZSA-N

>  <SMILES>
[H]/N=C(/c1cccc(c1)C[C@@H](C(=O)N2CCCCC2)NS(=O)(=O)c3ccc(cc3)C)\N

$$$$
