3P3G_3P3_A_401
  RCSB PDB08012020063D
Coordinates from PDB:3P3G:A:401 Model:1 without hydrogens
 27 28  0  0  0  0            999 V2000
   30.1570  -12.8490  -10.7240   O 0  0  0  0  0  0  0  0  0  0  0  0
   31.1870  -12.3410  -10.2330   C 0  0  0  0  0  0  0  0  0  0  0  0
   32.1100  -13.2220   -9.6370   N 0  0  0  0  0  0  0  0  0  0  0  0
   31.8090  -14.5040   -9.7010   O 0  0  0  0  0  0  0  0  0  0  0  0
   31.3730  -10.8460  -10.1770   C 0  0  0  0  0  0  0  0  0  0  0  0
   31.3310  -10.3110  -11.5140   N 0  0  0  0  0  0  0  0  0  0  0  0
   32.4590   -9.6180  -12.0740   C 0  0  0  0  0  0  0  0  0  0  0  0
   33.4340   -9.3370  -11.3860   O 0  0  0  0  0  0  0  0  0  0  0  0
   32.2040   -9.0570  -13.4420   C 0  0  0  0  0  0  0  0  0  0  0  0
   31.3640   -9.8000  -14.3140   C 0  0  0  0  0  0  0  0  0  0  0  0
   30.9820   -9.2700  -15.6290   C 0  0  0  0  0  0  0  0  0  0  0  0
   31.4940   -8.0260  -16.0290   C 0  0  0  0  0  0  0  0  0  0  0  0
   32.3490   -7.2720  -15.1470   C 0  0  0  0  0  0  0  0  0  0  0  0
   32.7300   -7.7930  -13.8390   C 0  0  0  0  0  0  0  0  0  0  0  0
   31.1420   -7.4350  -17.2680   C 0  0  0  0  0  0  0  0  0  0  0  0
   30.8350   -6.9150  -18.2900   C 0  0  0  0  0  0  0  0  0  0  0  0
   30.4650   -6.2660  -19.4350   C 0  0  0  0  0  0  0  0  0  0  0  0
   30.1350   -5.6610  -20.4080   C 0  0  0  0  0  0  0  0  0  0  0  0
   29.7330   -4.9140  -21.5470   C 0  0  0  0  0  0  0  0  0  0  0  0
   28.4080   -4.8610  -21.9970   C 0  0  0  0  0  0  0  0  0  0  0  0
   28.0880   -4.0980  -23.1220   C 0  0  0  0  0  0  0  0  0  0  0  0
   29.0730   -3.3610  -23.7840   C 0  0  0  0  0  0  0  0  0  0  0  0
   30.3840   -3.4060  -23.3320   C 0  0  0  0  0  0  0  0  0  0  0  0
   30.7060   -4.1730  -22.2150   C 0  0  0  0  0  0  0  0  0  0  0  0
   30.5100  -10.0670   -9.1780   C 0  0  0  0  0  0  0  0  0  0  0  0
   29.0330  -10.1260   -9.6170   C 0  0  0  0  0  0  0  0  0  0  0  0
   30.6750  -10.6640   -7.8870   O 0  0  0  0  0  0  0  0  0  0  0  0
  1  2  2  0  0  0  0
  2  3  1  0  0  0  0
  2  5  1  0  0  0  0
  3  4  1  0  0  0  0
  5  6  1  0  0  0  0
  5 25  1  0  0  0  0
  6  7  1  0  0  0  0
  7  8  2  0  0  0  0
  7  9  1  0  0  0  0
  9 10  2  0  0  0  0
  9 14  1  0  0  0  0
 10 11  1  0  0  0  0
 11 12  2  0  0  0  0
 12 13  1  0  0  0  0
 12 15  1  0  0  0  0
 13 14  2  0  0  0  0
 15 16  3  0  0  0  0
 16 17  1  0  0  0  0
 17 18  3  0  0  0  0
 18 19  1  0  0  0  0
 19 20  2  0  0  0  0
 19 24  1  0  0  0  0
 20 21  1  0  0  0  0
 21 22  2  0  0  0  0
 22 23  1  0  0  0  0
 23 24  2  0  0  0  0
 25 26  1  0  0  0  0
 25 27  1  0  0  0  0
M  END
>  <InstanceId>
3P3G_3P3_A_401

>  <ChemCompId>
3P3

>  <PdbId>
3P3G

>  <ChainId>
A

>  <ResidueNumber>
401

>  <InsertionCode>


>  <Model>
1

>  <AltIds>


>  <MissingHeavyAtoms>
0

>  <ObservedFormula>
C21 N2 O4

>  <Name>
N-[(1S,2R)-2-hydroxy-1-(hydroxycarbamoyl)propyl]-4-(4-phenylbuta-1,3-diyn-1-yl)benzamide

>  <SystematicName>
N-[(2S,3R)-3-hydroxy-1-(hydroxyamino)-1-oxo-butan-2-yl]-4-(4-phenylbuta-1,3-diynyl)benzamide

>  <Synonyms>


>  <Type>
NON-POLYMER

>  <Formula>
C21 H18 N2 O4

>  <MolecularWeight>
362.379

>  <ModifiedDate>
2011-06-04

>  <Parent>


>  <OneLetterCode>


>  <SubcomponentList>


>  <AmbiguousFlag>
N

>  <InChI>
InChI=1S/C21H18N2O4/c1-15(24)19(21(26)23-27)22-20(25)18-13-11-17(12-14-18)10-6-5-9-16-7-3-2-4-8-16/h2-4,7-8,11-15,19,24,27H,1H3,(H,22,25)(H,23,26)/t15-,19+/m1/s1

>  <InChIKey>
VUYMSCCEGRLBAF-BEFAXECRSA-N

>  <SMILES>
C[C@H]([C@@H](C(=O)NO)NC(=O)c1ccc(cc1)C#CC#Cc2ccccc2)O

$$$$
