5Z7J_36J_A_301
  RCSB PDB08022003493D
Coordinates from PDB:5Z7J:A:301 Model:1 without hydrogens
 23 24  0  0  0  0            999 V2000
   -8.2570    4.1020    5.9780   C 0  0  0  0  0  0  0  0  0  0  0  0
   -7.9200    2.6250    6.1300   C 0  0  0  0  0  0  0  0  0  0  0  0
   -9.0980    1.7640    6.5670   C 0  0  0  0  0  0  0  0  0  0  0  0
   -8.9900    0.2850    6.2490   C 0  0  0  0  0  0  0  0  0  0  0  0
   -7.5680   -0.2120    6.1590   C 0  0  0  0  0  0  0  0  0  0  0  0
   -9.6340    0.1210    4.9350   O 0  0  0  0  0  0  0  0  0  0  0  0
   -9.8630   -1.1300    4.5140   C 0  0  0  0  0  0  0  0  0  0  0  0
  -10.1080   -2.0310    5.2710   O 0  0  0  0  0  0  0  0  0  0  0  0
   -9.7570   -1.3140    3.0490   C 0  0  0  0  0  0  0  0  0  0  0  0
   -9.4190   -2.6100    2.5940   C 0  0  0  0  0  0  0  0  0  0  0  0
   -9.2160   -3.6170    3.4710   O 0  0  0  0  0  0  0  0  0  0  0  0
   -9.2900   -2.8820    1.2460   C 0  0  0  0  0  0  0  0  0  0  0  0
   -9.4990   -1.8740    0.3180   C 0  0  0  0  0  0  0  0  0  0  0  0
   -9.3720   -2.1340   -1.0120   O 0  0  0  0  0  0  0  0  0  0  0  0
   -9.8330   -0.5910    0.7290   C 0  0  0  0  0  0  0  0  0  0  0  0
   -9.9700   -0.2900    2.0830   C 0  0  0  0  0  0  0  0  0  0  0  0
  -10.3220    1.0890    2.4460   C 0  0  0  0  0  0  0  0  0  0  0  0
  -10.7480    2.0250    1.6200   C 0  0  0  0  0  0  0  0  0  0  0  0
  -11.2590    3.3710    2.0190   C 0  0  0  0  0  0  0  0  0  0  0  0
  -10.1840    4.2870    2.5840   C 0  0  0  0  0  0  0  0  0  0  0  0
   -9.9030    4.0330    4.0560   C 0  0  0  0  0  0  0  0  0  0  0  0
   -8.5720    4.5520    4.5590   C 0  0  0  0  0  0  0  0  0  0  0  0
   -8.5590    5.9870    4.4850   O 0  0  0  0  0  0  0  0  0  0  0  0
 14 13  1  0  0  0  0
 13 12  2  0  0  0  0
 13 15  1  0  0  0  0
 12 10  1  0  0  0  0
 15 16  2  0  0  0  0
 10 11  1  0  0  0  0
 10  9  2  0  0  0  0
 16  9  1  0  0  0  0
 16 17  1  0  0  0  0
  9  7  1  0  0  0  0
 17 18  2  0  0  0  0
 18 19  1  0  0  0  0
  7  8  2  0  0  0  0
  7  6  1  0  0  0  0
 19 20  1  0  0  0  0
  6  4  1  0  0  0  0
 20 21  1  0  0  0  0
  5  4  1  0  0  0  0
  4  3  1  0  0  0  0
 21 22  1  0  0  0  0
  3  2  1  0  0  0  0
 22 23  1  0  0  0  0
 22  1  1  0  0  0  0
  2  1  1  0  0  0  0
M  END
>  <InstanceId>
5Z7J_36J_A_301

>  <ChemCompId>
36J

>  <PdbId>
5Z7J

>  <ChainId>
A

>  <ResidueNumber>
301

>  <InsertionCode>


>  <Model>
1

>  <AltIds>


>  <MissingHeavyAtoms>
0

>  <ObservedFormula>
C18 O5

>  <Name>
(3S,7R,11E)-7,14,16-trihydroxy-3-methyl-3,4,5,6,7,8,9,10-octahydro-1H-2-benzoxacyclotetradecin-1-one

>  <SystematicName>
(2E,7R,11S)-11-methyl-7,15,17-tris(oxidanyl)-12-oxabicyclo[12.4.0]octadeca-1(18),2,14,16-tetraen-13-one

>  <Synonyms>


>  <Type>
NON-POLYMER

>  <Formula>
C18 H24 O5

>  <MolecularWeight>
320.38

>  <ModifiedDate>
2015-01-23

>  <Parent>


>  <OneLetterCode>


>  <SubcomponentList>


>  <AmbiguousFlag>
N

>  <InChI>
InChI=1S/C18H24O5/c1-12-6-5-9-14(19)8-4-2-3-7-13-10-15(20)11-16(21)17(13)18(22)23-12/h3,7,10-12,14,19-21H,2,4-6,8-9H2,1H3/b7-3+/t12-,14+/m0/s1

>  <InChIKey>
FPQFYIAXQDXNOR-QDKLYSGJSA-N

>  <SMILES>
C[C@H]1CCC[C@@H](CCC/C=C/c2cc(cc(c2C(=O)O1)O)O)O

$$$$
