6HRQ_GM5_A_504
  RCSB PDB08022005013D
Coordinates from PDB:6HRQ:A:504 Model:1 without hydrogens
 23 25  0  0  0  0            999 V2000
   42.1560   38.0480   92.1710   C 0  0  0  0  0  0  0  0  0  0  0  0
   40.9040   38.2620   92.7200   C 0  0  0  0  0  0  0  0  0  0  0  0
   40.6160   39.4520   93.3540   C 0  0  0  0  0  0  0  0  0  0  0  0
   42.8340   40.2350   92.8880   C 0  0  0  0  0  0  0  0  0  0  0  0
   44.0490   37.1520   87.4260   C 0  0  0  0  0  0  0  0  0  0  0  0
   44.8040   34.0070   84.6550   C 0  0  0  0  0  0  0  0  0  0  0  0
   45.4860   34.0330   85.8690   C 0  0  0  0  0  0  0  0  0  0  0  0
   45.2510   35.0780   86.7610   C 0  0  0  0  0  0  0  0  0  0  0  0
   44.3230   36.0730   86.4580   C 0  0  0  0  0  0  0  0  0  0  0  0
   43.6430   36.0240   85.2430   C 0  0  0  0  0  0  0  0  0  0  0  0
   43.8870   34.9980   84.3470   C 0  0  0  0  0  0  0  0  0  0  0  0
   46.3980   32.9040   86.2450   C 0  0  0  0  0  0  0  0  0  0  0  0
   43.1290   39.0350   92.2560   C 0  0  0  0  0  0  0  0  0  0  0  0
   41.5790   40.4360   93.4360   C 0  0  0  0  0  0  0  0  0  0  0  0
   44.1190   38.6740   88.9500   N 0  0  0  0  0  0  0  0  0  0  0  0
   42.8580   38.6420   88.4880   N 0  0  0  0  0  0  0  0  0  0  0  0
   42.8120   37.7130   87.5610   N 0  0  0  0  0  0  0  0  0  0  0  0
   44.8850   37.7690   88.3170   C 0  0  0  0  0  0  0  0  0  0  0  0
   46.4130   31.8650   85.4120   N 0  0  0  0  0  0  0  0  0  0  0  0
   47.1400   30.7140   85.7180   O 0  0  0  0  0  0  0  0  0  0  0  0
   47.0590   32.9360   87.2830   O 0  0  0  0  0  0  0  0  0  0  0  0
   44.7420   38.7560   91.5870   S 0  0  0  0  0  0  0  0  0  0  0  0
   44.5410   39.5860   89.9930   C 0  0  0  0  0  0  0  0  0  0  0  0
 11  6  2  0  0  0  0
 11 10  1  0  0  0  0
  6  7  1  0  0  0  0
 10  9  2  0  0  0  0
 19 20  1  0  0  0  0
 19 12  1  0  0  0  0
  7 12  1  0  0  0  0
  7  8  2  0  0  0  0
 12 21  2  0  0  0  0
  9  8  1  0  0  0  0
  9  5  1  0  0  0  0
  5 17  1  0  0  0  0
  5 18  2  0  0  0  0
 17 16  2  0  0  0  0
 18 15  1  0  0  0  0
 16 15  1  0  0  0  0
 15 23  1  0  0  0  0
 23 22  1  0  0  0  0
 22 13  1  0  0  0  0
  1 13  2  0  0  0  0
  1  2  1  0  0  0  0
 13  4  1  0  0  0  0
  2  3  2  0  0  0  0
  4 14  2  0  0  0  0
  3 14  1  0  0  0  0
M  END
>  <InstanceId>
6HRQ_GM5_A_504

>  <ChemCompId>
GM5

>  <PdbId>
6HRQ

>  <ChainId>
A

>  <ResidueNumber>
504

>  <InsertionCode>


>  <Model>
1

>  <AltIds>


>  <MissingHeavyAtoms>
0

>  <ObservedFormula>
C16 N4 O2 S

>  <Name>
~{N}-oxidanyl-3-[1-(phenylsulfanylmethyl)-1,2,3-triazol-4-yl]benzamide

>  <SystematicName>
~{N}-oxidanyl-3-[1-(phenylsulfanylmethyl)-1,2,3-triazol-4-yl]benzamide

>  <Synonyms>


>  <Type>
NON-POLYMER

>  <Formula>
C16 H14 N4 O2 S

>  <MolecularWeight>
326.373

>  <ModifiedDate>
2018-10-26

>  <Parent>


>  <OneLetterCode>


>  <SubcomponentList>


>  <AmbiguousFlag>
N

>  <InChI>
InChI=1S/C16H14N4O2S/c21-16(18-22)13-6-4-5-12(9-13)15-10-20(19-17-15)11-23-14-7-2-1-3-8-14/h1-10,22H,11H2,(H,18,21)

>  <InChIKey>
DORPIZJGSLWDIY-UHFFFAOYSA-N

>  <SMILES>
c1ccc(cc1)SCn2cc(nn2)c3cccc(c3)C(=O)NO

$$$$
