5E2R_520_A_302
  RCSB PDB08022001103D
Coordinates from PDB:5E2R:A:302 Model:1 without hydrogens
 25 27  0  0  0  0            999 V2000
   -0.2810   10.0190   14.3880   C 0  0  0  0  0  0  0  0  0  0  0  0
    0.1650   11.0710   15.1810   C 0  0  0  0  0  0  0  0  0  0  0  0
   -0.2070   12.3770   14.8790   C 0  0  0  0  0  0  0  0  0  0  0  0
    0.2270   13.4100   15.6580   N 0  0  0  0  0  0  0  0  0  0  0  0
   -1.0270   12.6290   13.7840   C 0  0  0  0  0  0  0  0  0  0  0  0
   -1.4730   11.5780   12.9920   C 0  0  0  0  0  0  0  0  0  0  0  0
   -1.1000   10.2720   13.2930   C 0  0  0  0  0  0  0  0  0  0  0  0
   -1.5740    9.1470   12.4330   C 0  0  0  0  0  0  0  0  0  0  0  0
   -1.5040    9.2280   11.2150   O 0  0  0  0  0  0  0  0  0  0  0  0
   -2.1490    7.9240   13.0720   C 0  0  0  0  0  0  0  0  0  0  0  0
   -1.9030    6.6720   12.5200   C 0  0  0  0  0  0  0  0  0  0  0  0
   -2.4880    5.5380   13.0740   C 0  0  0  0  0  0  0  0  0  0  0  0
   -2.9730    8.0440   14.1840   C 0  0  0  0  0  0  0  0  0  0  0  0
   -3.5580    6.9110   14.7380   C 0  0  0  0  0  0  0  0  0  0  0  0
   -3.3190    5.6590   14.1810   C 0  0  0  0  0  0  0  0  0  0  0  0
   -3.9370    4.5380   14.7240   C 0  0  0  0  0  0  0  0  0  0  0  0
   -3.1900    3.4070   15.0340   C 0  0  0  0  0  0  0  0  0  0  0  0
   -3.8050    2.3130   15.6340   C 0  0  0  0  0  0  0  0  0  0  0  0
   -5.1640    2.3480   15.9230   C 0  0  0  0  0  0  0  0  0  0  0  0
   -5.4330    1.0420   18.0980   O 0  0  0  0  0  0  0  0  0  0  0  0
   -7.3400    1.1000   16.5570   O 0  0  0  0  0  0  0  0  0  0  0  0
   -5.9140    3.4750   15.6040   C 0  0  0  0  0  0  0  0  0  0  0  0
   -5.2990    4.5690   15.0040   C 0  0  0  0  0  0  0  0  0  0  0  0
   -5.9220    0.9910   16.7490   S 0  0  0  0  0  0  0  0  0  0  0  0
   -5.4030   -0.3420   16.0540   N 0  0  0  0  0  0  0  0  0  0  0  0
  4  3  1  0  0  0  0
  3  5  2  0  0  0  0
  3  2  1  0  0  0  0
  5  6  1  0  0  0  0
  2  1  2  0  0  0  0
  6  7  2  0  0  0  0
  1  7  1  0  0  0  0
  7  8  1  0  0  0  0
  9  8  2  0  0  0  0
  8 10  1  0  0  0  0
 10 11  2  0  0  0  0
 10 13  1  0  0  0  0
 11 12  1  0  0  0  0
 13 14  2  0  0  0  0
 12 15  2  0  0  0  0
 14 15  1  0  0  0  0
 15 16  1  0  0  0  0
 16 17  2  0  0  0  0
 16 23  1  0  0  0  0
 17 18  1  0  0  0  0
 23 22  2  0  0  0  0
 18 19  2  0  0  0  0
 22 19  1  0  0  0  0
 19 24  1  0  0  0  0
 24 20  2  0  0  0  0
 24 25  1  0  0  0  0
 24 21  2  0  0  0  0
M  END
>  <InstanceId>
5E2R_520_A_302

>  <ChemCompId>
520

>  <PdbId>
5E2R

>  <ChainId>
A

>  <ResidueNumber>
302

>  <InsertionCode>


>  <Model>
1

>  <AltIds>


>  <MissingHeavyAtoms>
0

>  <ObservedFormula>
C19 N2 O3 S

>  <Name>
4'-(4-aminobenzoyl)biphenyl-4-sulfonamide

>  <SystematicName>
4-[4-(4-aminophenyl)carbonylphenyl]benzenesulfonamide

>  <Synonyms>


>  <Type>
NON-POLYMER

>  <Formula>
C19 H16 N2 O3 S

>  <MolecularWeight>
352.407

>  <ModifiedDate>
2015-10-30

>  <Parent>


>  <OneLetterCode>


>  <SubcomponentList>


>  <AmbiguousFlag>
N

>  <InChI>
InChI=1S/C19H16N2O3S/c20-17-9-5-16(6-10-17)19(22)15-3-1-13(2-4-15)14-7-11-18(12-8-14)25(21,23)24/h1-12H,20H2,(H2,21,23,24)

>  <InChIKey>
XKAQFZLONLOUSN-UHFFFAOYSA-N

>  <SMILES>
c1cc(ccc1c2ccc(cc2)S(=O)(=O)N)C(=O)c3ccc(cc3)N

$$$$
