6B1K_C9G_A_201
  RCSB PDB08022004003D
Coordinates from PDB:6B1K:A:201 Model:1 without hydrogens
 24 27  0  0  0  0            999 V2000
  -17.0430  -18.3660   20.2230   C 0  0  0  0  0  0  0  0  0  0  0  0
  -17.5880  -17.3360   19.4780   C 0  0  0  0  0  0  0  0  0  0  0  0
  -18.2030  -17.6550   18.2720   C 0  0  0  0  0  0  0  0  0  0  0  0
  -19.4960  -14.7950   16.4950   N 0  0  0  0  0  0  0  0  0  0  0  0
  -18.7680  -16.6200   17.3980   C 0  0  0  0  0  0  0  0  0  0  0  0
  -18.8580  -15.2670   17.5880   C 0  0  0  0  0  0  0  0  0  0  0  0
  -19.8040  -15.8120   15.6500   N 0  0  0  0  0  0  0  0  0  0  0  0
  -19.8580  -13.4560   16.1700   C 0  0  0  0  0  0  0  0  0  0  0  0
  -19.8960  -13.0480   14.8460   C 0  0  0  0  0  0  0  0  0  0  0  0
  -20.2020  -11.7330   14.5380   C 0  0  0  0  0  0  0  0  0  0  0  0
  -20.4590  -10.8240   15.5560   C 0  0  0  0  0  0  0  0  0  0  0  0
  -19.3480  -16.9150   16.1960   N 0  0  0  0  0  0  0  0  0  0  0  0
  -20.4270  -11.2370   16.8800   C 0  0  0  0  0  0  0  0  0  0  0  0
  -20.1370  -12.5520   17.1840   C 0  0  0  0  0  0  0  0  0  0  0  0
  -17.7610  -19.9070   18.5480   C 0  0  0  0  0  0  0  0  0  0  0  0
  -18.2970  -18.9130   17.8140   N 0  0  0  0  0  0  0  0  0  0  0  0
  -17.3100  -22.2730   18.7570   N 0  0  0  0  0  0  0  0  0  0  0  0
  -17.3910  -23.6370   18.2380   C 0  0  0  0  0  0  0  0  0  0  0  0
  -20.7520   -9.5240   15.2890   O 0  0  0  0  0  0  0  0  0  0  0  0
  -16.6790  -22.0350   19.9550   C 0  0  0  0  0  0  0  0  0  0  0  0
  -17.8880  -21.2610   17.9880   C 0  0  0  0  0  0  0  0  0  0  0  0
  -16.5660  -20.8150   20.4700   C 0  0  0  0  0  0  0  0  0  0  0  0
  -17.1130  -19.6870   19.7710   C 0  0  0  0  0  0  0  0  0  0  0  0
  -18.4720  -21.5350   16.9560   O 0  0  0  0  0  0  0  0  0  0  0  0
 18 17  1  0  0  0  0
 20 17  1  0  0  0  0
 20 22  2  0  0  0  0
 17 21  1  0  0  0  0
 22 23  1  0  0  0  0
 21 24  2  0  0  0  0
 21 15  1  0  0  0  0
 23 15  2  0  0  0  0
 23  1  1  0  0  0  0
 15 16  1  0  0  0  0
  1  2  2  0  0  0  0
 16  3  2  0  0  0  0
  2  3  1  0  0  0  0
  3  5  1  0  0  0  0
 12  5  1  0  0  0  0
 12  7  2  0  0  0  0
  5  6  2  0  0  0  0
  7  4  1  0  0  0  0
  6  4  1  0  0  0  0
  4  8  1  0  0  0  0
  9  8  2  0  0  0  0
  9 10  1  0  0  0  0
  8 14  1  0  0  0  0
 10 11  2  0  0  0  0
 14 13  2  0  0  0  0
 11 13  1  0  0  0  0
 11 19  1  0  0  0  0
M  END
>  <InstanceId>
6B1K_C9G_A_201

>  <ChemCompId>
C9G

>  <PdbId>
6B1K

>  <ChainId>
A

>  <ResidueNumber>
201

>  <InsertionCode>


>  <Model>
1

>  <AltIds>


>  <MissingHeavyAtoms>
0

>  <ObservedFormula>
C17 N5 O2

>  <Name>
2-[1-(4-hydroxyphenyl)-1H-1,2,3-triazol-4-yl]-7-methyl-1,7-naphthyridin-8(7H)-one

>  <SystematicName>
2-[1-(4-hydroxyphenyl)-1,2,3-triazol-4-yl]-7-methyl-1,7-naphthyridin-8-one

>  <Synonyms>


>  <Type>
NON-POLYMER

>  <Formula>
C17 H13 N5 O2

>  <MolecularWeight>
319.317

>  <ModifiedDate>
2017-12-29

>  <Parent>


>  <OneLetterCode>


>  <SubcomponentList>


>  <AmbiguousFlag>
N

>  <InChI>
InChI=1S/C17H13N5O2/c1-21-9-8-11-2-7-14(18-16(11)17(21)24)15-10-22(20-19-15)12-3-5-13(23)6-4-12/h2-10,23H,1H3

>  <InChIKey>
KANBQBQJUNGFMT-UHFFFAOYSA-N

>  <SMILES>
CN1C=Cc2ccc(nc2C1=O)c3cn(nn3)c4ccc(cc4)O

$$$$
