4DO5_DGJ_A_509
  RCSB PDB08012021303D
Coordinates from PDB:4DO5:A:509 Model:1 without hydrogens
 11 11  0  0  0  0            999 V2000
   58.9540   -5.7030   18.9120   C 0  0  0  0  0  0  0  0  0  0  0  0
   58.1230   -4.9080   17.9280   C 0  0  0  0  0  0  0  0  0  0  0  0
   57.0000   -4.2670   18.5320   O 0  0  0  0  0  0  0  0  0  0  0  0
   57.6860   -5.8810   16.8310   C 0  0  0  0  0  0  0  0  0  0  0  0
   56.8380   -5.2140   15.9070   O 0  0  0  0  0  0  0  0  0  0  0  0
   58.9390   -6.3820   16.1410   C 0  0  0  0  0  0  0  0  0  0  0  0
   59.6100   -5.2840   15.5190   O 0  0  0  0  0  0  0  0  0  0  0  0
   59.8560   -7.0850   17.1320   C 0  0  0  0  0  0  0  0  0  0  0  0
   60.1740   -6.2690   18.3190   N 0  0  0  0  0  0  0  0  0  0  0  0
   61.1630   -7.4770   16.4640   C 0  0  0  0  0  0  0  0  0  0  0  0
   62.0460   -8.1330   17.3680   O 0  0  0  0  0  0  0  0  0  0  0  0
  9  1  1  0  0  0  0
  2  1  1  0  0  0  0
  4  2  1  0  0  0  0
  2  3  1  0  0  0  0
  6  4  1  0  0  0  0
  5  4  1  0  0  0  0
  7  6  1  0  0  0  0
  6  8  1  0  0  0  0
 10  8  1  0  0  0  0
  8  9  1  0  0  0  0
 10 11  1  0  0  0  0
M  END
>  <InstanceId>
4DO5_DGJ_A_509

>  <ChemCompId>
DGJ

>  <PdbId>
4DO5

>  <ChainId>
A

>  <ResidueNumber>
509

>  <InsertionCode>


>  <Model>
1

>  <AltIds>


>  <MissingHeavyAtoms>
0

>  <ObservedFormula>
C6 N O4

>  <Name>
(2R,3S,4R,5S)-2-(hydroxymethyl)piperidine-3,4,5-triol

>  <SystematicName>
(2R,3S,4R,5S)-2-(hydroxymethyl)piperidine-3,4,5-triol

>  <Synonyms>
1-deoxygalactonojirimycin

>  <Type>
NON-POLYMER

>  <Formula>
C6 H13 N O4

>  <MolecularWeight>
163.172

>  <ModifiedDate>
2011-12-02

>  <Parent>


>  <OneLetterCode>


>  <SubcomponentList>


>  <AmbiguousFlag>
N

>  <InChI>
InChI=1S/C6H13NO4/c8-2-3-5(10)6(11)4(9)1-7-3/h3-11H,1-2H2/t3-,4+,5+,6-/m1/s1

>  <InChIKey>
LXBIFEVIBLOUGU-DPYQTVNSSA-N

>  <SMILES>
C1[C@@H]([C@H]([C@H]([C@H](N1)CO)O)O)O

$$$$
