1GJ6_132_A_246
  RCSB PDB08012014593D
Coordinates from PDB:1GJ6:A:246 Model:1 without hydrogens
 26 29  0  0  0  0            999 V2000
   43.9530   -3.0730   25.6520   C 0  0  0  0  0  0  0  0  0  0  0  0
   43.7760   -1.6610   25.5810   C 0  0  0  0  0  0  0  0  0  0  0  0
   43.5480   -0.9200   26.7570   C 0  0  0  0  0  0  0  0  0  0  0  0
   43.5080   -1.5780   27.9710   C 0  0  0  0  0  0  0  0  0  0  0  0
   43.6690   -2.9190   28.0410   C 0  0  0  0  0  0  0  0  0  0  0  0
   43.9060   -3.7020   26.9130   C 0  0  0  0  0  0  0  0  0  0  0  0
   44.2010   -3.8450   24.4930   C 0  0  0  0  0  0  0  0  0  0  0  0
   43.8320   -5.1100   24.4240   N 0  0  0  0  0  0  0  0  0  0  0  0
   44.8250   -3.2500   23.5110   N 0  3  0  0  0  0  0  0  0  0  0  0
   43.3150   -1.1180   29.1890   N 0  0  0  0  0  0  0  0  0  0  0  0
   43.5800   -3.2680   29.3620   C 0  0  0  0  0  0  0  0  0  0  0  0
   43.3470   -2.0890   30.0550   C 0  0  0  0  0  0  0  0  0  0  0  0
   43.1440   -1.9450   31.4390   C 0  0  0  0  0  0  0  0  0  0  0  0
   42.8930   -3.0760   32.2240   C 0  0  0  0  0  0  0  0  0  0  0  0
   42.6970   -2.9580   33.5990   C 0  0  0  0  0  0  0  0  0  0  0  0
   42.6900   -1.7200   34.1950   C 0  0  0  0  0  0  0  0  0  0  0  0
   42.9380   -0.5650   33.4580   C 0  0  0  0  0  0  0  0  0  0  0  0
   43.1310   -0.6680   32.0570   C 0  0  0  0  0  0  0  0  0  0  0  0
   43.3130    0.4590   31.2760   O 0  0  0  0  0  0  0  0  0  0  0  0
   43.0020    0.6370   34.1840   C 0  0  0  0  0  0  0  0  0  0  0  0
   44.1910    1.3700   34.1310   C 0  0  0  0  0  0  0  0  0  0  0  0
   44.3480    2.5330   34.8770   C 0  0  0  0  0  0  0  0  0  0  0  0
   43.3240    2.9930   35.6900   C 0  0  0  0  0  0  0  0  0  0  0  0
   42.1330    2.2810   35.7530   C 0  0  0  0  0  0  0  0  0  0  0  0
   41.9700    1.1080   35.0030   C 0  0  0  0  0  0  0  0  0  0  0  0
   43.7500   -0.6970   24.0830  Cl 0  0  0  0  0  0  0  0  0  0  0  0
  1  2  1  0  0  0  0
  1  6  2  0  0  0  0
  1  7  1  0  0  0  0
  2  3  2  0  0  0  0
  2 26  1  0  0  0  0
  3  4  1  0  0  0  0
  4  5  2  0  0  0  0
  4 10  1  0  0  0  0
  5  6  1  0  0  0  0
  5 11  1  0  0  0  0
  7  8  1  0  0  0  0
  7  9  2  0  0  0  0
 10 12  1  0  0  0  0
 11 12  2  0  0  0  0
 12 13  1  0  0  0  0
 13 14  2  0  0  0  0
 13 18  1  0  0  0  0
 14 15  1  0  0  0  0
 15 16  2  0  0  0  0
 16 17  1  0  0  0  0
 17 18  2  0  0  0  0
 17 20  1  0  0  0  0
 18 19  1  0  0  0  0
 20 21  2  0  0  0  0
 20 25  1  0  0  0  0
 21 22  1  0  0  0  0
 22 23  2  0  0  0  0
 23 24  1  0  0  0  0
 24 25  2  0  0  0  0
M  CHG  1   9   1
M  END
>  <InstanceId>
1GJ6_132_A_246

>  <ChemCompId>
132

>  <PdbId>
1GJ6

>  <ChainId>
A

>  <ResidueNumber>
246

>  <InsertionCode>


>  <Model>
1

>  <AltIds>


>  <MissingHeavyAtoms>
0

>  <ObservedFormula>
C21 N3 O Cl

>  <Name>
6-CHLORO-2-(2-HYDROXY-BIPHENYL-3-YL)-1H-INDOLE-5-CARBOXAMIDINE

>  <SystematicName>
[amino-[6-chloro-2-(2-hydroxy-3-phenyl-phenyl)-1H-indol-5-yl]methylidene]azanium

>  <Synonyms>


>  <Type>
NON-POLYMER

>  <Formula>
C21 H17 Cl N3 O

>  <MolecularWeight>
362.832

>  <ModifiedDate>
2011-06-04

>  <Parent>


>  <OneLetterCode>


>  <SubcomponentList>


>  <AmbiguousFlag>
N

>  <InChI>
InChI=1S/C21H16ClN3O/c22-17-11-18-13(9-16(17)21(23)24)10-19(25-18)15-8-4-7-14(20(15)26)12-5-2-1-3-6-12/h1-11,25-26H,(H3,23,24)/p+1

>  <InChIKey>
FEKRWNWZMOSVBX-UHFFFAOYSA-O

>  <SMILES>
c1ccc(cc1)c2cccc(c2O)c3cc4cc(c(cc4[nH]3)Cl)C(=[NH2+])N

$$$$
