3N3G_93N_A_221
  RCSB PDB08012019523D
Coordinates from PDB:3N3G:A:221 Model:1 without hydrogens
 29 31  0  0  0  0            999 V2000
   13.8640   -7.1990   19.2400   N 0  0  0  0  0  0  0  0  0  0  0  0
   12.5930   -7.2640   18.7550   C 0  0  0  0  0  0  0  0  0  0  0  0
   11.6090   -6.3900   19.2190   C 0  0  0  0  0  0  0  0  0  0  0  0
   11.9430   -5.4270   20.1680   C 0  0  0  0  0  0  0  0  0  0  0  0
   13.2450   -5.3480   20.6530   C 0  0  0  0  0  0  0  0  0  0  0  0
   14.1710   -6.2530   20.1620   C 0  0  0  0  0  0  0  0  0  0  0  0
   12.3700   -8.3430   17.7690   C 0  0  0  0  0  0  0  0  0  0  0  0
   11.0940   -8.8740   17.5040   C 0  0  0  0  0  0  0  0  0  0  0  0
   10.8970   -9.9270   16.5680   C 0  0  0  0  0  0  0  0  0  0  0  0
   12.0200  -10.4760   15.9010   C 0  0  0  0  0  0  0  0  0  0  0  0
   13.2860   -9.9520   16.1630   C 0  0  0  0  0  0  0  0  0  0  0  0
   13.4550   -8.9170   17.0830   C 0  0  0  0  0  0  0  0  0  0  0  0
   11.8140  -11.4920   14.9990   O 0  0  0  0  0  0  0  0  0  0  0  0
   12.5470  -12.7070   15.1630   C 0  0  0  0  0  0  0  0  0  0  0  0
   12.6280  -13.5050   13.8570   C 0  0  0  0  0  0  0  0  0  0  0  0
   11.3880  -14.3550   13.6390   C 0  0  0  0  0  0  0  0  0  0  0  0
   10.1150  -13.5530   13.5180   N 0  0  0  0  0  0  0  0  0  0  0  0
   15.5390   -6.2530   20.5720   C 0  0  0  0  0  0  0  0  0  0  0  0
   16.6710   -6.3080   20.8050   N 0  0  0  0  0  0  0  0  0  0  0  0
    9.4860  -10.4410   16.3460   C 0  0  0  0  0  0  0  0  0  0  0  0
    9.0570  -10.5110   15.0610   F 0  0  0  0  0  0  0  0  0  0  0  0
    8.5270   -9.7050   16.9540   F 0  0  0  0  0  0  0  0  0  0  0  0
    9.2970  -11.6840   16.8350   F 0  0  0  0  0  0  0  0  0  0  0  0
    7.6240  -13.5260   13.3980   C 0  0  0  0  0  0  0  0  0  0  0  0
    7.7210  -12.6770   12.1360   N 0  0  0  0  0  0  0  0  0  0  0  0
    8.8790  -11.7250   12.3510   C 0  0  0  0  0  0  0  0  0  0  0  0
   10.1760  -12.5410   12.3890   C 0  0  0  0  0  0  0  0  0  0  0  0
    8.8730  -14.4160   13.4870   C 0  0  0  0  0  0  0  0  0  0  0  0
    6.4260  -11.9730   11.7730   C 0  0  0  0  0  0  0  0  0  0  0  0
  2  1  2  0  0  0  0
  1  6  1  0  0  0  0
  7  2  1  0  0  0  0
  2  3  1  0  0  0  0
  3  4  2  0  0  0  0
  4  5  1  0  0  0  0
  6  5  2  0  0  0  0
  6 18  1  0  0  0  0
 12  7  2  0  0  0  0
  8  7  1  0  0  0  0
  9  8  2  0  0  0  0
 10  9  1  0  0  0  0
 20  9  1  0  0  0  0
 13 10  1  0  0  0  0
 10 11  2  0  0  0  0
 11 12  1  0  0  0  0
 13 14  1  0  0  0  0
 15 14  1  0  0  0  0
 16 15  1  0  0  0  0
 17 16  1  0  0  0  0
 27 17  1  0  0  0  0
 28 17  1  0  0  0  0
 18 19  3  0  0  0  0
 21 20  1  0  0  0  0
 20 23  1  0  0  0  0
 20 22  1  0  0  0  0
 25 24  1  0  0  0  0
 24 28  1  0  0  0  0
 29 25  1  0  0  0  0
 25 26  1  0  0  0  0
 26 27  1  0  0  0  0
M  END
>  <InstanceId>
3N3G_93N_A_221

>  <ChemCompId>
93N

>  <PdbId>
3N3G

>  <ChainId>
A

>  <ResidueNumber>
221

>  <InsertionCode>


>  <Model>
1

>  <AltIds>


>  <MissingHeavyAtoms>
0

>  <ObservedFormula>
C21 N4 O F3

>  <Name>
6-{4-[3-(4-methylpiperazin-1-yl)propoxy]-3-(trifluoromethyl)phenyl}pyridine-2-carbonitrile

>  <SystematicName>
6-[4-[3-(4-methylpiperazin-1-yl)propoxy]-3-(trifluoromethyl)phenyl]pyridine-2-carbonitrile

>  <Synonyms>


>  <Type>
NON-POLYMER

>  <Formula>
C21 H23 F3 N4 O

>  <MolecularWeight>
404.429

>  <ModifiedDate>
2011-06-04

>  <Parent>


>  <OneLetterCode>


>  <SubcomponentList>


>  <AmbiguousFlag>
N

>  <InChI>
InChI=1S/C21H23F3N4O/c1-27-9-11-28(12-10-27)8-3-13-29-20-7-6-16(14-18(20)21(22,23)24)19-5-2-4-17(15-25)26-19/h2,4-7,14H,3,8-13H2,1H3

>  <InChIKey>
CWICZCHZPOSFKO-UHFFFAOYSA-N

>  <SMILES>
CN1CCN(CC1)CCCOc2ccc(cc2C(F)(F)F)c3cccc(n3)C#N

$$$$
