3QX9_ATP_A_1
  RCSB PDB08012020173D
Coordinates from PDB:3QX9:A:1 Model:1 without hydrogens
 31 33  0  0  0  0            999 V2000
   20.7120   10.3420  -24.2540   P 0  0  0  0  0  0  0  0  0  0  0  0
   19.2990   10.1600  -24.7530   O 0  0  0  0  0  0  0  0  0  0  0  0
   21.1250   11.7820  -24.0720   O 0  0  0  0  0  0  0  0  0  0  0  0
   21.7350    9.4750  -24.9490   O 0  0  0  0  0  0  0  0  0  0  0  0
   20.7040    8.1880  -22.4320   P 0  0  0  0  0  0  0  0  0  0  0  0
   19.4550    7.5560  -22.9930   O 0  0  0  0  0  0  0  0  0  0  0  0
   22.0530    7.6380  -22.8230   O 0  0  0  0  0  0  0  0  0  0  0  0
   20.6850    9.7710  -22.7490   O 0  0  0  0  0  0  0  0  0  0  0  0
   19.3740    7.5250  -20.0490   P 0  0  0  0  0  0  0  0  0  0  0  0
   19.5840    6.0430  -19.8670   O 0  0  0  0  0  0  0  0  0  0  0  0
   18.1150    8.0400  -20.7070   O 0  0  0  0  0  0  0  0  0  0  0  0
   20.6270    8.1740  -20.8270   O 0  0  0  0  0  0  0  0  0  0  0  0
   19.5150    8.2470  -18.6170   O 0  0  0  0  0  0  0  0  0  0  0  0
   18.5500    9.2090  -18.1930   C 0  0  0  0  0  0  0  0  0  0  0  0
   18.7420    9.5290  -16.7150   C 0  0  0  0  0  0  0  0  0  0  0  0
   20.1150    9.4280  -16.3340   O 0  0  0  0  0  0  0  0  0  0  0  0
   18.2890   10.9440  -16.3780   C 0  0  0  0  0  0  0  0  0  0  0  0
   17.1090   10.8940  -15.5670   O 0  0  0  0  0  0  0  0  0  0  0  0
   19.4570   11.5750  -15.6330   C 0  0  0  0  0  0  0  0  0  0  0  0
   19.0540   12.2020  -14.4120   O 0  0  0  0  0  0  0  0  0  0  0  0
   20.4150   10.4210  -15.3550   C 0  0  0  0  0  0  0  0  0  0  0  0
   21.8290   10.8530  -15.4430   N 0  0  0  0  0  0  0  0  0  0  0  0
   22.4270   11.3970  -16.5210   C 0  0  0  0  0  0  0  0  0  0  0  0
   23.7300   11.6810  -16.2680   N 0  0  0  0  0  0  0  0  0  0  0  0
   23.9880   11.3180  -14.9970   C 0  0  0  0  0  0  0  0  0  0  0  0
   25.1630   11.3430  -14.0940   C 0  0  0  0  0  0  0  0  0  0  0  0
   26.3620   11.8290  -14.5050   N 0  0  0  0  0  0  0  0  0  0  0  0
   25.0030   10.8650  -12.8450   N 0  0  0  0  0  0  0  0  0  0  0  0
   23.8200   10.3820  -12.4200   C 0  0  0  0  0  0  0  0  0  0  0  0
   22.7130   10.3310  -13.1800   N 0  0  0  0  0  0  0  0  0  0  0  0
   22.7320   10.7770  -14.4580   C 0  0  0  0  0  0  0  0  0  0  0  0
  1  2  2  0  0  0  0
  1  3  1  0  0  0  0
  1  4  1  0  0  0  0
  1  8  1  0  0  0  0
  5  6  2  0  0  0  0
  5  7  1  0  0  0  0
  5  8  1  0  0  0  0
  5 12  1  0  0  0  0
  9 10  2  0  0  0  0
  9 11  1  0  0  0  0
  9 12  1  0  0  0  0
  9 13  1  0  0  0  0
 13 14  1  0  0  0  0
 14 15  1  0  0  0  0
 15 16  1  0  0  0  0
 15 17  1  0  0  0  0
 16 21  1  0  0  0  0
 17 18  1  0  0  0  0
 17 19  1  0  0  0  0
 19 20  1  0  0  0  0
 19 21  1  0  0  0  0
 21 22  1  0  0  0  0
 22 23  1  0  0  0  0
 22 31  1  0  0  0  0
 23 24  2  0  0  0  0
 24 25  1  0  0  0  0
 25 26  1  0  0  0  0
 25 31  2  0  0  0  0
 26 27  1  0  0  0  0
 26 28  2  0  0  0  0
 28 29  1  0  0  0  0
 29 30  2  0  0  0  0
 30 31  1  0  0  0  0
M  END
>  <InstanceId>
3QX9_ATP_A_1

>  <ChemCompId>
ATP

>  <PdbId>
3QX9

>  <ChainId>
A

>  <ResidueNumber>
1

>  <InsertionCode>


>  <Model>
1

>  <AltIds>


>  <MissingHeavyAtoms>
0

>  <ObservedFormula>
C10 N5 O13 P3

>  <Name>
ADENOSINE-5'-TRIPHOSPHATE

>  <SystematicName>
[[(2R,3S,4R,5R)-5-(6-aminopurin-9-yl)-3,4-dihydroxy-oxolan-2-yl]methoxy-hydroxy-phosphoryl] phosphono hydrogen phosphate

>  <Synonyms>


>  <Type>
NON-POLYMER

>  <Formula>
C10 H16 N5 O13 P3

>  <MolecularWeight>
507.181

>  <ModifiedDate>
2011-06-04

>  <Parent>


>  <OneLetterCode>


>  <SubcomponentList>


>  <AmbiguousFlag>
N

>  <InChI>
InChI=1S/C10H16N5O13P3/c11-8-5-9(13-2-12-8)15(3-14-5)10-7(17)6(16)4(26-10)1-25-30(21,22)28-31(23,24)27-29(18,19)20/h2-4,6-7,10,16-17H,1H2,(H,21,22)(H,23,24)(H2,11,12,13)(H2,18,19,20)/t4-,6-,7-,10-/m1/s1

>  <InChIKey>
ZKHQWZAMYRWXGA-KQYNXXCUSA-N

>  <SMILES>
c1nc(c2c(n1)n(cn2)[C@H]3[C@@H]([C@@H]([C@H](O3)CO[P@@](=O)(O)O[P@](=O)(O)OP(=O)(O)O)O)O)N

$$$$
