5HWV_MBN_A_501
  RCSB PDB08022001393D
Coordinates from PDB:5HWV:A:501 Model:1 without hydrogens
  7  7  0  0  0  0            999 V2000
   -5.3130    5.2670  -27.1460   C 0  0  0  0  0  0  0  0  0  0  0  0
   -5.9810    4.9630  -28.4270   C 0  0  0  0  0  0  0  0  0  0  0  0
   -5.7040    5.6700  -29.5640   C 0  0  0  0  0  0  0  0  0  0  0  0
   -6.3390    5.4130  -30.7760   C 0  0  0  0  0  0  0  0  0  0  0  0
   -7.3040    4.3780  -30.8350   C 0  0  0  0  0  0  0  0  0  0  0  0
   -7.5540    3.6690  -29.6090   C 0  0  0  0  0  0  0  0  0  0  0  0
   -6.9020    3.9520  -28.4150   C 0  0  0  0  0  0  0  0  0  0  0  0
  1  2  1  0  0  0  0
  2  3  2  0  0  0  0
  2  7  1  0  0  0  0
  3  4  1  0  0  0  0
  4  5  2  0  0  0  0
  5  6  1  0  0  0  0
  6  7  2  0  0  0  0
M  END
>  <InstanceId>
5HWV_MBN_A_501

>  <ChemCompId>
MBN

>  <PdbId>
5HWV

>  <ChainId>
A

>  <ResidueNumber>
501

>  <InsertionCode>


>  <Model>
1

>  <AltIds>


>  <MissingHeavyAtoms>
0

>  <ObservedFormula>
C7

>  <Name>
TOLUENE

>  <SystematicName>
methylbenzene

>  <Synonyms>


>  <Type>
NON-POLYMER

>  <Formula>
C7 H8

>  <MolecularWeight>
92.138

>  <ModifiedDate>
2011-06-04

>  <Parent>


>  <OneLetterCode>


>  <SubcomponentList>


>  <AmbiguousFlag>
N

>  <InChI>
InChI=1S/C7H8/c1-7-5-3-2-4-6-7/h2-6H,1H3

>  <InChIKey>
YXFVVABEGXRONW-UHFFFAOYSA-N

>  <SMILES>
Cc1ccccc1

$$$$
