5FSY_AR6_A_1262
  RCSB PDB08022001253D
Coordinates from PDB:5FSY:A:1262 Model:1 without hydrogens
 36 39  0  0  0  0            999 V2000
   33.2230    1.9270   12.8600   N 0  0  0  0  0  0  0  0  0  0  0  0
   32.2850    1.5880   13.7750   C 0  0  0  0  0  0  0  0  0  0  0  0
   31.2560    2.3890   14.0900   N 0  0  0  0  0  0  0  0  0  0  0  0
   31.0940    3.5910   13.4300   C 0  0  0  0  0  0  0  0  0  0  0  0
   32.0340    3.9840   12.4010   C 0  0  0  0  0  0  0  0  0  0  0  0
   33.1460    3.0720   12.1720   C 0  0  0  0  0  0  0  0  0  0  0  0
   34.0510    3.3590   11.2600   N 0  0  0  0  0  0  0  0  0  0  0  0
   31.6540    5.1860   11.9210   N 0  0  0  0  0  0  0  0  0  0  0  0
   30.5460    5.5260   12.5620   C 0  0  0  0  0  0  0  0  0  0  0  0
   30.2150    4.5740   13.4610   N 0  0  0  0  0  0  0  0  0  0  0  0
   26.3880    6.1430   10.9470   P 0  0  0  0  0  0  0  0  0  0  0  0
   23.5820    6.6130   10.3470   P 0  0  0  0  0  0  0  0  0  0  0  0
   29.0530    4.6020   14.3600   C 0  0  0  0  0  0  0  0  0  0  0  0
   27.2050    4.9720   10.4950   O 0  0  0  0  0  0  0  0  0  0  0  0
   22.3910    5.7160   10.5700   O 0  0  0  0  0  0  0  0  0  0  0  0
   26.1250    5.3340    5.9430   C 0  0  0  0  0  0  0  0  0  0  0  0
   26.9130    5.8500    4.8630   O 0  0  0  0  0  0  0  0  0  0  0  0
   28.6360    5.9990   14.7930   C 0  0  0  0  0  0  0  0  0  0  0  0
   29.6230    6.5840   15.6510   O 0  0  0  0  0  0  0  0  0  0  0  0
   26.8560    7.4920   10.5380   O 0  0  0  0  0  0  0  0  0  0  0  0
   23.6110    7.9260   11.1210   O 0  0  0  0  0  0  0  0  0  0  0  0
   25.0020    4.4530    5.4510   C 0  0  0  0  0  0  0  0  0  0  0  0
   25.2310    3.8150    4.1980   O 0  0  0  0  0  0  0  0  0  0  0  0
   27.2680    5.6580   15.3480   C 0  0  0  0  0  0  0  0  0  0  0  0
   27.3850    5.0340   16.6410   O 0  0  0  0  0  0  0  0  0  0  0  0
   24.9070    5.7480   10.4820   O 0  0  0  0  0  0  0  0  0  0  0  0
   23.7770    5.3470    5.4310   C 0  0  0  0  0  0  0  0  0  0  0  0
   23.5780    5.9370    4.1320   O 0  0  0  0  0  0  0  0  0  0  0  0
   26.7400    4.5960   14.3810   C 0  0  0  0  0  0  0  0  0  0  0  0
   27.8930    4.1010   13.7280   O 0  0  0  0  0  0  0  0  0  0  0  0
   24.0950    6.3670    6.4980   C 0  0  0  0  0  0  0  0  0  0  0  0
   25.5150    6.3840    6.7210   O 0  0  0  0  0  0  0  0  0  0  0  0
   25.7680    5.0160   13.2680   C 0  0  0  0  0  0  0  0  0  0  0  0
   26.2930    6.1290   12.5550   O 0  0  0  0  0  0  0  0  0  0  0  0
   23.4060    6.0290    7.7990   C 0  0  0  0  0  0  0  0  0  0  0  0
   23.6310    7.0280    8.7940   O 0  0  0  0  0  0  0  0  0  0  0  0
  1  2  2  0  0  0  0
  1  6  1  0  0  0  0
  2  3  1  0  0  0  0
  3  4  2  0  0  0  0
  4  5  1  0  0  0  0
  4 10  1  0  0  0  0
  5  6  2  0  0  0  0
  5  8  1  0  0  0  0
  6  7  1  0  0  0  0
  8  9  2  0  0  0  0
  9 10  1  0  0  0  0
 10 13  1  0  0  0  0
 11 14  1  0  0  0  0
 11 20  2  0  0  0  0
 11 26  1  0  0  0  0
 11 34  1  0  0  0  0
 12 15  1  0  0  0  0
 12 21  2  0  0  0  0
 12 26  1  0  0  0  0
 12 36  1  0  0  0  0
 13 18  1  0  0  0  0
 13 30  1  0  0  0  0
 16 17  1  0  0  0  0
 16 22  1  0  0  0  0
 16 32  1  0  0  0  0
 18 19  1  0  0  0  0
 18 24  1  0  0  0  0
 22 23  1  0  0  0  0
 22 27  1  0  0  0  0
 24 25  1  0  0  0  0
 24 29  1  0  0  0  0
 27 28  1  0  0  0  0
 27 31  1  0  0  0  0
 29 30  1  0  0  0  0
 29 33  1  0  0  0  0
 31 32  1  0  0  0  0
 31 35  1  0  0  0  0
 33 34  1  0  0  0  0
 35 36  1  0  0  0  0
M  END
>  <InstanceId>
5FSY_AR6_A_1262

>  <ChemCompId>
AR6

>  <PdbId>
5FSY

>  <ChainId>
A

>  <ResidueNumber>
1262

>  <InsertionCode>


>  <Model>
1

>  <AltIds>


>  <MissingHeavyAtoms>
0

>  <ObservedFormula>
C15 N5 O14 P2

>  <Name>
[(2R,3S,4R,5R)-5-(6-AMINOPURIN-9-YL)-3,4-DIHYDROXY-OXOLAN-2-YL]METHYL [HYDROXY-[[(2R,3S,4R,5S)-3,4,5-TRIHYDROXYOXOLAN-2-YL]METHOXY]PHOSPHORYL] HYDROGEN PHOSPHATE

>  <SystematicName>
[[(2R,3S,4R,5R)-5-(6-aminopurin-9-yl)-3,4-bis(oxidanyl)oxolan-2-yl]methoxy-oxidanyl-phosphoryl] [(2R,3S,4R,5S)-3,4,5-tris(oxidanyl)oxolan-2-yl]methyl hydrogen phosphate

>  <Synonyms>
Adenosine-5-Diphosphoribose

>  <Type>
NON-POLYMER

>  <Formula>
C15 H23 N5 O14 P2

>  <MolecularWeight>
559.316

>  <ModifiedDate>
2020-06-17

>  <Parent>


>  <OneLetterCode>


>  <SubcomponentList>


>  <AmbiguousFlag>
N

>  <InChI>
InChI=1S/C15H23N5O14P2/c16-12-7-13(18-3-17-12)20(4-19-7)14-10(23)8(21)5(32-14)1-30-35(26,27)34-36(28,29)31-2-6-9(22)11(24)15(25)33-6/h3-6,8-11,14-15,21-25H,1-2H2,(H,26,27)(H,28,29)(H2,16,17,18)/t5-,6-,8-,9-,10-,11-,14-,15+/m1/s1

>  <InChIKey>
SRNWOUGRCWSEMX-ZQSHOCFMSA-N

>  <SMILES>
c1nc(c2c(n1)n(cn2)[C@H]3[C@@H]([C@@H]([C@H](O3)COP(=O)(O)OP(=O)(O)OC[C@@H]4[C@H]([C@H]([C@H](O4)O)O)O)O)O)N

$$$$
