6MA4_JA7_A_1101
  RCSB PDB08022005293D
Coordinates from PDB:6MA4:A:1101 Model:1 without hydrogens
 43 46  0  0  0  0            999 V2000
    1.7420  -44.9370   13.4060   C 0  0  0  0  0  0  0  0  0  0  0  0
    2.1320  -44.1080   16.1650   N 0  0  0  0  0  0  0  0  0  0  0  0
    0.9450  -44.7950   16.8600   C 0  0  0  0  0  0  0  0  0  0  0  0
   -0.1300  -43.7680   19.0530   C 0  0  0  0  0  0  0  0  0  0  0  0
   -1.9590  -42.0780   18.7240   C 0  0  0  0  0  0  0  0  0  0  0  0
   -3.7380  -40.3440   15.4840   C 0  0  0  0  0  0  0  0  0  0  0  0
   -3.3580  -39.2930   14.3620   C 0  0  0  0  0  0  0  0  0  0  0  0
   -0.0820  -43.5860   20.4460   C 0  0  0  0  0  0  0  0  0  0  0  0
    1.9720  -44.9010   20.6380   C 0  0  0  0  0  0  0  0  0  0  0  0
    0.7620  -46.3760   16.4370   C 0  0  0  0  0  0  0  0  0  0  0  0
   -0.1710  -49.5680    9.2610   O 0  0  0  0  0  0  0  0  0  0  0  0
   -0.0670  -48.5810   10.0060   C 0  0  0  0  0  0  0  0  0  0  0  0
    1.1520  -48.3810   10.7190   N 0  0  0  0  0  0  0  0  0  0  0  0
   -1.1620  -47.5980   10.1910   C 0  0  0  0  0  0  0  0  0  0  0  0
   -0.9830  -46.5170   11.0410   C 0  0  0  0  0  0  0  0  0  0  0  0
    0.2980  -46.2970   11.7920   C 0  0  0  0  0  0  0  0  0  0  0  0
    1.3450  -47.2430   11.6120   C 0  0  0  0  0  0  0  0  0  0  0  0
    2.5880  -47.0260   12.3390   C 0  0  0  0  0  0  0  0  0  0  0  0
    2.7630  -45.9180   13.2100   C 0  0  0  0  0  0  0  0  0  0  0  0
    1.9580  -43.4090   14.6260   S 0  0  0  0  0  0  0  0  0  0  0  0
    0.9120  -44.5500   18.4090   C 0  0  0  0  0  0  0  0  0  0  0  0
   -1.1510  -43.2240   18.2740   O 0  0  0  0  0  0  0  0  0  0  0  0
   -3.1000  -41.6270   17.7000   C 0  0  0  0  0  0  0  0  0  0  0  0
   -2.6250  -40.6880   16.5080   C 0  0  0  0  0  0  0  0  0  0  0  0
   -3.8200  -39.4250   13.1810   O 0  0  0  0  0  0  0  0  0  0  0  0
   -2.5940  -38.3310   14.6700   O 0  0  0  0  0  0  0  0  0  0  0  0
    0.9470  -44.1430   21.2360   C 0  0  0  0  0  0  0  0  0  0  0  0
    1.9380  -45.0940   19.2340   C 0  0  0  0  0  0  0  0  0  0  0  0
   -0.4750  -47.0290   16.2900   N 0  0  0  0  0  0  0  0  0  0  0  0
   -0.5450  -48.4800   15.8950   C 0  0  0  0  0  0  0  0  0  0  0  0
   -0.4540  -49.5490   17.0660   C 0  0  0  0  0  0  0  0  0  0  0  0
   -0.3750  -49.0850   18.2440   O 0  0  0  0  0  0  0  0  0  0  0  0
   -0.4610  -50.7800   16.7950   O 0  0  0  0  0  0  0  0  0  0  0  0
   -1.8000  -46.3170   16.4920   C 0  0  0  0  0  0  0  0  0  0  0  0
   -2.5940  -45.8520   15.2160   C 0  0  0  0  0  0  0  0  0  0  0  0
   -2.9060  -44.6050   14.7150   C 0  0  0  0  0  0  0  0  0  0  0  0
   -3.6880  -44.5960   13.4440   C 0  0  0  0  0  0  0  0  0  0  0  0
   -3.9730  -45.8460   12.9680   C 0  0  0  0  0  0  0  0  0  0  0  0
   -3.2960  -47.0150   14.0760   S 0  0  0  0  0  0  0  0  0  0  0  0
    1.8610  -46.9380   16.2690   O 0  0  0  0  0  0  0  0  0  0  0  0
    3.0970  -42.6610   14.2190   O 0  0  0  0  0  0  0  0  0  0  0  0
    0.7730  -42.6310   14.5380   O 0  0  0  0  0  0  0  0  0  0  0  0
    0.5410  -45.1760   12.6930   C 0  0  0  0  0  0  0  0  0  0  0  0
 11 12  2  0  0  0  0
 12 14  1  0  0  0  0
 12 13  1  0  0  0  0
 14 15  2  0  0  0  0
 13 17  1  0  0  0  0
 15 16  1  0  0  0  0
 17 16  2  0  0  0  0
 17 18  1  0  0  0  0
 16 43  1  0  0  0  0
 18 19  2  0  0  0  0
 43  1  2  0  0  0  0
 38 37  2  0  0  0  0
 38 39  1  0  0  0  0
 25  7  2  0  0  0  0
 19  1  1  0  0  0  0
  1 20  1  0  0  0  0
 37 36  1  0  0  0  0
 39 35  1  0  0  0  0
 41 20  2  0  0  0  0
  7 26  1  0  0  0  0
  7  6  1  0  0  0  0
 42 20  2  0  0  0  0
 20  2  1  0  0  0  0
 36 35  2  0  0  0  0
 35 34  1  0  0  0  0
  6 24  1  0  0  0  0
 30 29  1  0  0  0  0
 30 31  1  0  0  0  0
  2  3  1  0  0  0  0
 40 10  2  0  0  0  0
 29 10  1  0  0  0  0
 29 34  1  0  0  0  0
 10  3  1  0  0  0  0
 24 23  1  0  0  0  0
 33 31  2  0  0  0  0
  3 21  1  0  0  0  0
 31 32  1  0  0  0  0
 23  5  1  0  0  0  0
 22  5  1  0  0  0  0
 22  4  1  0  0  0  0
 21  4  2  0  0  0  0
 21 28  1  0  0  0  0
  4  8  1  0  0  0  0
 28  9  2  0  0  0  0
  8 27  2  0  0  0  0
  9 27  1  0  0  0  0
M  END
>  <InstanceId>
6MA4_JA7_A_1101

>  <ChemCompId>
JA7

>  <PdbId>
6MA4

>  <ChainId>
A

>  <ResidueNumber>
1101

>  <InsertionCode>


>  <Model>
1

>  <AltIds>


>  <MissingHeavyAtoms>
0

>  <ObservedFormula>
C29 N3 O9 S2

>  <Name>
5-{2-[(1R)-2-{(carboxymethyl)[(thiophen-2-yl)methyl]amino}-2-oxo-1-{[(2-oxo-1,2-dihydroquinolin-6-yl)sulfonyl]amino}ethyl]phenoxy}pentanoic acid

>  <SystematicName>
5-[2-[(1~{R})-2-[2-hydroxy-2-oxoethyl(thiophen-2-ylmethyl)amino]-2-oxidanylidene-1-[(2-oxidanylidene-1~{H}-quinolin-6-yl)sulfonylamino]ethyl]phenoxy]pentanoic acid

>  <Synonyms>


>  <Type>
NON-POLYMER

>  <Formula>
C29 H29 N3 O9 S2

>  <MolecularWeight>
627.685

>  <ModifiedDate>
2018-10-12

>  <Parent>


>  <OneLetterCode>


>  <SubcomponentList>


>  <AmbiguousFlag>
N

>  <InChI>
InChI=1S/C29H29N3O9S2/c33-25-13-10-19-16-21(11-12-23(19)30-25)43(39,40)31-28(29(38)32(18-27(36)37)17-20-6-5-15-42-20)22-7-1-2-8-24(22)41-14-4-3-9-26(34)35/h1-2,5-8,10-13,15-16,28,31H,3-4,9,14,17-18H2,(H,30,33)(H,34,35)(H,36,37)/t28-/m1/s1

>  <InChIKey>
VMCJXXUCJJAXMA-MUUNZHRXSA-N

>  <SMILES>
c1ccc(c(c1)[C@H](C(=O)N(Cc2cccs2)CC(=O)O)NS(=O)(=O)c3ccc4c(c3)C=CC(=O)N4)OCCCCC(=O)O

$$$$
