5OTZ_AUT_A_404
  RCSB PDB08022002443D
Coordinates from PDB:5OTZ:A:404 Model:1 without hydrogens
 18 19  0  0  0  0            999 V2000
 -117.3480 -174.7430  308.5690   C 0  0  0  0  0  0  0  0  0  0  0  0
 -114.9460 -174.0150  308.7120   C 0  0  0  0  0  0  0  0  0  0  0  0
 -114.1100 -176.5590  309.3230   C 0  0  0  0  0  0  0  0  0  0  0  0
 -113.1530 -175.5480  309.2960   C 0  0  0  0  0  0  0  0  0  0  0  0
 -109.5070 -176.5980  309.0550   C 0  0  0  0  0  0  0  0  0  0  0  0
 -111.7180 -175.8190  309.6250   C 0  0  0  0  0  0  0  0  0  0  0  0
 -115.8850 -175.0380  308.7710   C 0  0  0  0  0  0  0  0  0  0  0  0
 -113.6150 -174.2720  308.9730   C 0  0  0  0  0  0  0  0  0  0  0  0
 -112.4940 -172.9510  308.8990  Cl 0  0  0  0  0  0  0  0  0  0  0  0
 -115.4460 -176.3200  309.0690   C 0  0  0  0  0  0  0  0  0  0  0  0
 -111.2980 -175.6770  310.9480   C 0  0  0  0  0  0  0  0  0  0  0  0
 -109.1140 -176.4620  310.3730   C 0  0  0  0  0  0  0  0  0  0  0  0
 -110.0040 -176.0030  311.3150   C 0  0  0  0  0  0  0  0  0  0  0  0
 -110.8060 -176.2820  308.6650   C 0  0  0  0  0  0  0  0  0  0  0  0
 -111.2420 -176.4560  307.2280   C 0  0  0  0  0  0  0  0  0  0  0  0
 -117.9610 -175.7380  307.6980   N 0  0  0  0  0  0  0  0  0  0  0  0
 -113.6110 -178.1800  309.6750  Cl 0  0  0  0  0  0  0  0  0  0  0  0
 -110.8530 -175.3290  306.3140   C 0  0  0  0  0  0  0  0  0  0  0  0
 18 15  1  0  0  0  0
 15 14  1  0  0  0  0
 16  1  1  0  0  0  0
  1  7  1  0  0  0  0
 14  5  2  0  0  0  0
 14  6  1  0  0  0  0
  2  7  2  0  0  0  0
  2  8  1  0  0  0  0
  7 10  1  0  0  0  0
  9  8  1  0  0  0  0
  8  4  2  0  0  0  0
  5 12  1  0  0  0  0
 10  3  2  0  0  0  0
  4  3  1  0  0  0  0
  4  6  1  0  0  0  0
  3 17  1  0  0  0  0
  6 11  2  0  0  0  0
 12 13  2  0  0  0  0
 11 13  1  0  0  0  0
M  END
>  <InstanceId>
5OTZ_AUT_A_404

>  <ChemCompId>
AUT

>  <PdbId>
5OTZ

>  <ChainId>
A

>  <ResidueNumber>
404

>  <InsertionCode>


>  <Model>
1

>  <AltIds>


>  <MissingHeavyAtoms>
0

>  <ObservedFormula>
C15 N Cl2

>  <Name>
[3,5-bis(chloranyl)-4-(2-ethylphenyl)phenyl]methanamine

>  <SystematicName>
[3,5-bis(chloranyl)-4-(2-ethylphenyl)phenyl]methanamine

>  <Synonyms>


>  <Type>
NON-POLYMER

>  <Formula>
C15 H15 Cl2 N

>  <MolecularWeight>
280.192

>  <ModifiedDate>
2018-02-23

>  <Parent>


>  <OneLetterCode>


>  <SubcomponentList>


>  <AmbiguousFlag>
N

>  <InChI>
InChI=1S/C15H15Cl2N/c1-2-11-5-3-4-6-12(11)15-13(16)7-10(9-18)8-14(15)17/h3-8H,2,9,18H2,1H3

>  <InChIKey>
ADAAVRXXVZLMDK-UHFFFAOYSA-N

>  <SMILES>
CCc1ccccc1c2c(cc(cc2Cl)CN)Cl

$$$$
