6BM5_SAM_A_1301
  RCSB PDB08022004043D
Coordinates from PDB:6BM5:A:1301 Model:1 without hydrogens
 27 29  0  0  0  0            999 V2000
  -10.1480   20.8060  -13.8870   N 0  0  0  0  0  0  0  0  0  0  0  0
   -9.5030   19.5220  -13.6700   C 0  0  0  0  0  0  0  0  0  0  0  0
   -8.5290   19.5720  -12.5080   C 0  0  0  0  0  0  0  0  0  0  0  0
   -8.3930   18.5930  -11.7470   O 0  0  0  0  0  0  0  0  0  0  0  0
   -7.8870   20.6090  -12.3000   O 0  5  0  0  0  0  0  0  0  0  0  0
   -8.7910   19.0660  -14.9490   C 0  0  0  0  0  0  0  0  0  0  0  0
   -7.9970   17.7640  -14.7730   C 0  0  0  0  0  0  0  0  0  0  0  0
   -8.9590   16.3500  -14.1490   S 0  3  0  0  0  0  0  0  0  0  0  0
   -7.6350   15.2990  -13.5130   C 0  0  0  0  0  0  0  0  0  0  0  0
   -9.4190   15.5270  -15.6960   C 0  0  0  0  0  0  0  0  0  0  0  0
   -8.2950   14.8190  -16.4490   C 0  0  0  0  0  0  0  0  0  0  0  0
   -8.0300   13.5230  -15.9050   O 0  0  0  0  0  0  0  0  0  0  0  0
   -8.7290   14.5550  -17.8810   C 0  0  0  0  0  0  0  0  0  0  0  0
   -8.4360   15.6260  -18.7490   O 0  0  0  0  0  0  0  0  0  0  0  0
   -7.9400   13.3360  -18.2550   C 0  0  0  0  0  0  0  0  0  0  0  0
   -6.6060   13.6920  -18.5450   O 0  0  0  0  0  0  0  0  0  0  0  0
   -7.9070   12.5880  -16.9540   C 0  0  0  0  0  0  0  0  0  0  0  0
   -8.9980   11.6220  -16.7790   N 0  0  0  0  0  0  0  0  0  0  0  0
  -10.1180   11.7340  -15.9990   C 0  0  0  0  0  0  0  0  0  0  0  0
  -10.8270   10.5830  -16.0850   N 0  0  0  0  0  0  0  0  0  0  0  0
  -10.1710    9.7440  -16.9230   C 0  0  0  0  0  0  0  0  0  0  0  0
  -10.4240    8.4570  -17.3820   C 0  0  0  0  0  0  0  0  0  0  0  0
  -11.5130    7.7680  -17.0130   N 0  0  0  0  0  0  0  0  0  0  0  0
   -9.4990    7.8950  -18.2280   N 0  0  0  0  0  0  0  0  0  0  0  0
   -8.3670    8.5680  -18.6350   C 0  0  0  0  0  0  0  0  0  0  0  0
   -8.1250    9.8490  -18.2040   N 0  0  0  0  0  0  0  0  0  0  0  0
   -9.0150   10.3880  -17.3530   C 0  0  0  0  0  0  0  0  0  0  0  0
  1  2  1  0  0  0  0
  2  3  1  0  0  0  0
  2  6  1  0  0  0  0
  3  4  2  0  0  0  0
  3  5  1  0  0  0  0
  6  7  1  0  0  0  0
  7  8  1  0  0  0  0
  8  9  1  0  0  0  0
  8 10  1  0  0  0  0
 10 11  1  0  0  0  0
 11 12  1  0  0  0  0
 11 13  1  0  0  0  0
 12 17  1  0  0  0  0
 13 14  1  0  0  0  0
 13 15  1  0  0  0  0
 15 16  1  0  0  0  0
 15 17  1  0  0  0  0
 17 18  1  0  0  0  0
 18 19  1  0  0  0  0
 18 27  1  0  0  0  0
 19 20  2  0  0  0  0
 20 21  1  0  0  0  0
 21 22  1  0  0  0  0
 21 27  2  0  0  0  0
 22 23  1  0  0  0  0
 22 24  2  0  0  0  0
 24 25  1  0  0  0  0
 25 26  2  0  0  0  0
 26 27  1  0  0  0  0
M  CHG  2   5  -1   8   1
M  END
>  <InstanceId>
6BM5_SAM_A_1301

>  <ChemCompId>
SAM

>  <PdbId>
6BM5

>  <ChainId>
A

>  <ResidueNumber>
1301

>  <InsertionCode>


>  <Model>
1

>  <AltIds>


>  <MissingHeavyAtoms>
0

>  <ObservedFormula>
C15 N6 O5 S

>  <Name>
S-ADENOSYLMETHIONINE

>  <SystematicName>
(2S)-2-amino-4-[[(2S,3S,4R,5R)-5-(6-aminopurin-9-yl)-3,4-dihydroxy-oxolan-2-yl]methyl-methyl-sulfonio]butanoate

>  <Synonyms>


>  <Type>
NON-POLYMER

>  <Formula>
C15 H22 N6 O5 S

>  <MolecularWeight>
398.437

>  <ModifiedDate>
2011-06-04

>  <Parent>


>  <OneLetterCode>


>  <SubcomponentList>


>  <AmbiguousFlag>
N

>  <InChI>
InChI=1S/C15H22N6O5S/c1-27(3-2-7(16)15(24)25)4-8-10(22)11(23)14(26-8)21-6-20-9-12(17)18-5-19-13(9)21/h5-8,10-11,14,22-23H,2-4,16H2,1H3,(H2-,17,18,19,24,25)/t7-,8+,10+,11+,14+,27-/m0/s1

>  <InChIKey>
MEFKEPWMEQBLKI-FCKMPRQPSA-N

>  <SMILES>
C[S@@+](CC[C@@H](C(=O)[O-])N)C[C@@H]1[C@H]([C@H]([C@@H](O1)n2cnc3c2ncnc3N)O)O

$$$$
