2XXT_KAI_A_900
  RCSB PDB08012018193D
Coordinates from PDB:2XXT:A:900 Model:1 without hydrogens
 15 15  0  0  0  0            999 V2000
   19.6280  -35.0590   -7.8200   N 0  0  0  0  0  0  0  0  0  0  0  0
   19.2870  -33.7350   -7.2440   C 0  0  0  0  0  0  0  0  0  0  0  0
   19.2390  -31.4060   -5.5370   C 0  0  0  0  0  0  0  0  0  0  0  0
   18.9970  -32.8560   -3.4640   C 0  0  0  0  0  0  0  0  0  0  0  0
   20.0470  -35.9240   -6.7150   C 0  0  0  0  0  0  0  0  0  0  0  0
   20.1910  -35.0320   -5.4970   C 0  0  0  0  0  0  0  0  0  0  0  0
   21.5610  -34.3610   -5.4130   C 0  0  0  0  0  0  0  0  0  0  0  0
   19.1930  -33.9410   -5.7390   C 0  0  0  0  0  0  0  0  0  0  0  0
   22.6780  -35.2570   -4.9220   C 0  0  0  0  0  0  0  0  0  0  0  0
   19.5660  -32.7320   -4.8780   C 0  0  0  0  0  0  0  0  0  0  0  0
   18.9860  -36.9550   -6.4890   C 0  0  0  0  0  0  0  0  0  0  0  0
   18.1420  -37.1950   -7.3750   O 0  0  0  0  0  0  0  0  0  0  0  0
   23.8450  -34.8180   -5.0600   O 0  0  0  0  0  0  0  0  0  0  0  0
   22.4320  -36.3780   -4.4040   O 0  0  0  0  0  0  0  0  0  0  0  0
   18.9350  -37.5610   -5.4080   O 0  0  0  0  0  0  0  0  0  0  0  0
  1  2  1  0  0  0  0
  1  5  1  0  0  0  0
  2  8  1  0  0  0  0
  3 10  2  0  0  0  0
  4 10  1  0  0  0  0
  5  6  1  0  0  0  0
  5 11  1  0  0  0  0
  6  7  1  0  0  0  0
  6  8  1  0  0  0  0
  7  9  1  0  0  0  0
  8 10  1  0  0  0  0
  9 13  1  0  0  0  0
  9 14  2  0  0  0  0
 11 12  2  0  0  0  0
 11 15  1  0  0  0  0
M  END
>  <InstanceId>
2XXT_KAI_A_900

>  <ChemCompId>
KAI

>  <PdbId>
2XXT

>  <ChainId>
A

>  <ResidueNumber>
900

>  <InsertionCode>


>  <Model>
1

>  <AltIds>


>  <MissingHeavyAtoms>
0

>  <ObservedFormula>
C10 N O4

>  <Name>
3-(CARBOXYMETHYL)-4-ISOPROPENYLPROLINE

>  <SystematicName>
(2S,3S,4S)-3-(carboxymethyl)-4-prop-1-en-2-yl-pyrrolidine-2-carboxylic acid

>  <Synonyms>
KAINATE

>  <Type>
NON-POLYMER

>  <Formula>
C10 H15 N O4

>  <MolecularWeight>
213.23

>  <ModifiedDate>
2020-06-17

>  <Parent>


>  <OneLetterCode>


>  <SubcomponentList>


>  <AmbiguousFlag>
N

>  <InChI>
InChI=1S/C10H15NO4/c1-5(2)7-4-11-9(10(14)15)6(7)3-8(12)13/h6-7,9,11H,1,3-4H2,2H3,(H,12,13)(H,14,15)/t6-,7+,9-/m0/s1

>  <InChIKey>
VLSMHEGGTFMBBZ-OOZYFLPDSA-N

>  <SMILES>
CC(=C)[C@H]1CN[C@@H]([C@H]1CC(=O)O)C(=O)O

$$$$
