4HLA_017_A_200
  RCSB PDB08012021563D
Coordinates from PDB:4HLA:A:200 Model:1 without hydrogens
 38 41  0  0  0  0            999 V2000
    9.9800  -15.7090    8.5230   N 0  0  0  0  0  0  0  0  0  0  0  0
    9.7270  -15.5410    7.2020   C 0  0  0  0  0  0  0  0  0  0  0  0
   10.1240  -14.3820    6.5370   C 0  0  0  0  0  0  0  0  0  0  0  0
    9.8470  -14.2310    5.1810   C 0  0  0  0  0  0  0  0  0  0  0  0
    9.1850  -15.2410    4.4820   C 0  0  0  0  0  0  0  0  0  0  0  0
    8.7820  -16.3820    5.1610   C 0  0  0  0  0  0  0  0  0  0  0  0
    9.0550  -16.5360    6.5110   C 0  0  0  0  0  0  0  0  0  0  0  0
    8.8290  -15.1140    2.9270   S 0  0  0  0  0  0  0  0  0  0  0  0
    7.6470  -15.8910    2.7030   O 0  0  0  0  0  0  0  0  0  0  0  0
    8.5500  -13.7600    2.6110   O 0  0  0  0  0  0  0  0  0  0  0  0
    9.9900  -15.6100    1.9070   N 0  0  0  0  0  0  0  0  0  0  0  0
   11.3040  -15.0760    2.3000   C 0  0  0  0  0  0  0  0  0  0  0  0
   11.9840  -14.2730    1.1890   C 0  0  0  0  0  0  0  0  0  0  0  0
   12.4000  -15.1560    0.0280   C 0  0  0  0  0  0  0  0  0  0  0  0
   11.1400  -13.1050    0.6910   C 0  0  0  0  0  0  0  0  0  0  0  0
   10.0260  -17.0800    1.8030   C 0  0  0  0  0  0  0  0  0  0  0  0
    9.8480  -17.4520    0.3370   C 0  0  0  0  0  0  0  0  0  0  0  0
   10.1070  -18.8400    0.1300   O 0  0  0  0  0  0  0  0  0  0  0  0
    8.4440  -17.0820   -0.1260   C 0  0  0  0  0  0  0  0  0  0  0  0
    8.4600  -17.3080   -1.5530   N 0  0  0  0  0  0  0  0  0  0  0  0
    8.3640  -16.3270   -2.4420   C 0  0  0  0  0  0  0  0  0  0  0  0
    8.2620  -15.1490   -2.1570   O 0  0  0  0  0  0  0  0  0  0  0  0
    8.4060  -16.7450   -3.8280   O 0  0  0  0  0  0  0  0  0  0  0  0
    7.9770  -15.8390   -4.8240   C 0  0  0  0  0  0  0  0  0  0  0  0
    8.9530  -16.0840   -5.9560   C 0  0  0  0  0  0  0  0  0  0  0  0
    8.4510  -17.2590   -6.5990   O 0  0  0  0  0  0  0  0  0  0  0  0
    7.0310  -17.3530   -6.4180   C 0  0  0  0  0  0  0  0  0  0  0  0
    6.6590  -18.6310   -5.8900   O 0  0  0  0  0  0  0  0  0  0  0  0
    5.9780  -18.5190   -4.6420   C 0  0  0  0  0  0  0  0  0  0  0  0
    5.7640  -17.0350   -4.3950   C 0  0  0  0  0  0  0  0  0  0  0  0
    6.6560  -16.3170   -5.3830   C 0  0  0  0  0  0  0  0  0  0  0  0
    7.4140  -18.0610    0.4180   C 0  0  0  0  0  0  0  0  0  0  0  0
    5.4280  -16.6240   -0.0670   C 0  0  0  0  0  0  0  0  0  0  0  0
    4.2110  -16.3950   -0.6960   C 0  0  0  0  0  0  0  0  0  0  0  0
    3.6630  -17.3560   -1.5340   C 0  0  0  0  0  0  0  0  0  0  0  0
    4.3370  -18.5580   -1.7310   C 0  0  0  0  0  0  0  0  0  0  0  0
    5.5540  -18.7970   -1.1040   C 0  0  0  0  0  0  0  0  0  0  0  0
    6.0980  -17.8230   -0.2720   C 0  0  0  0  0  0  0  0  0  0  0  0
  1  2  1  0  0  0  0
  2  3  2  0  0  0  0
  2  7  1  0  0  0  0
  3  4  1  0  0  0  0
  4  5  2  0  0  0  0
  5  6  1  0  0  0  0
  5  8  1  0  0  0  0
  6  7  2  0  0  0  0
  8  9  2  0  0  0  0
  8 10  2  0  0  0  0
  8 11  1  0  0  0  0
 11 12  1  0  0  0  0
 11 16  1  0  0  0  0
 12 13  1  0  0  0  0
 13 14  1  0  0  0  0
 13 15  1  0  0  0  0
 16 17  1  0  0  0  0
 17 18  1  0  0  0  0
 17 19  1  0  0  0  0
 19 20  1  0  0  0  0
 19 32  1  0  0  0  0
 20 21  1  0  0  0  0
 21 22  2  0  0  0  0
 21 23  1  0  0  0  0
 23 24  1  0  0  0  0
 24 25  1  0  0  0  0
 24 31  1  0  0  0  0
 25 26  1  0  0  0  0
 26 27  1  0  0  0  0
 27 28  1  0  0  0  0
 27 31  1  0  0  0  0
 28 29  1  0  0  0  0
 29 30  1  0  0  0  0
 30 31  1  0  0  0  0
 32 38  1  0  0  0  0
 33 34  2  0  0  0  0
 33 38  1  0  0  0  0
 34 35  1  0  0  0  0
 35 36  2  0  0  0  0
 36 37  1  0  0  0  0
 37 38  2  0  0  0  0
M  END
>  <InstanceId>
4HLA_017_A_200

>  <ChemCompId>
017

>  <PdbId>
4HLA

>  <ChainId>
A

>  <ResidueNumber>
200

>  <InsertionCode>


>  <Model>
1

>  <AltIds>


>  <MissingHeavyAtoms>
0

>  <ObservedFormula>
C27 N3 O7 S

>  <Name>
(3R,3AS,6AR)-HEXAHYDROFURO[2,3-B]FURAN-3-YL(1S,2R)-3-[[(4-AMINOPHENYL)SULFONYL](ISOBUTYL)AMINO]-1-BENZYL-2-HYDROXYPROPYLCARBAMATE

>  <SystematicName>
[(3R,3aS,6aR)-2,3,3a,4,5,6a-hexahydrofuro[2,3-b]furan-3-yl] N-[(2S,3R)-4-[(4-aminophenyl)sulfonyl-(2-methylpropyl)amino]-3-hydroxy-1-phenyl-butan-2-yl]carbamate

>  <Synonyms>
Darunavir; TMC114; UIC-94017

>  <Type>
NON-POLYMER

>  <Formula>
C27 H37 N3 O7 S

>  <MolecularWeight>
547.664

>  <ModifiedDate>
2020-05-22

>  <Parent>


>  <OneLetterCode>


>  <SubcomponentList>


>  <AmbiguousFlag>
N

>  <InChI>
InChI=1S/C27H37N3O7S/c1-18(2)15-30(38(33,34)21-10-8-20(28)9-11-21)16-24(31)23(14-19-6-4-3-5-7-19)29-27(32)37-25-17-36-26-22(25)12-13-35-26/h3-11,18,22-26,31H,12-17,28H2,1-2H3,(H,29,32)/t22-,23-,24+,25-,26+/m0/s1

>  <InChIKey>
CJBJHOAVZSMMDJ-HEXNFIEUSA-N

>  <SMILES>
CC(C)C[N@@](C[C@H]([C@H](Cc1ccccc1)NC(=O)O[C@H]2CO[C@@H]3[C@H]2CCO3)O)S(=O)(=O)c4ccc(cc4)N

$$$$
