1SIV_PSI_B_100
  RCSB PDB08012015563D
Coordinates from PDB:1SIV:B:100 Model:1 without hydrogens
 41 41  0  0  0  0            999 V2000
    6.3210   16.3470   32.3890   N 0  0  0  0  0  0  0  0  0  0  0  0
    6.1780   15.1570   33.2190   C 0  0  0  0  0  0  0  0  0  0  0  0
    5.1000   15.4110   34.2600   C 0  0  0  0  0  0  0  0  0  0  0  0
    4.7450   16.5620   34.5420   O 0  0  0  0  0  0  0  0  0  0  0  0
    7.4680   14.8260   33.9450   C 0  0  0  0  0  0  0  0  0  0  0  0
    4.5530   14.3870   34.8220   N 0  0  0  0  0  0  0  0  0  0  0  0
    3.5220   14.5460   35.8010   C 0  0  0  0  0  0  0  0  0  0  0  0
    3.7600   13.5250   36.9140   C 0  0  0  0  0  0  0  0  0  0  0  0
    3.5460   12.3220   36.7610   O 0  0  0  0  0  0  0  0  0  0  0  0
    2.2050   14.3110   35.1050   C 0  0  0  0  0  0  0  0  0  0  0  0
    1.5270   11.0000   41.4510   C 0  0  0  0  0  0  0  0  0  0  0  0
    1.8450   10.1220   40.6350   O 0  0  0  0  0  0  0  0  0  0  0  0
    1.1170   12.3780   40.9510   C 0  0  0  0  0  0  0  0  0  0  0  0
    1.9690   12.7550   39.7840   C 0  0  0  0  0  0  0  0  0  0  0  0
    3.3430   13.1250   40.2330   C 0  0  0  0  0  0  0  0  0  0  0  0
    3.2270   14.4600   40.7050   O 0  0  0  0  0  0  0  0  0  0  0  0
    4.4520   13.0110   39.1770   C 0  0  0  0  0  0  0  0  0  0  0  0
    4.2150   13.9480   38.0820   N 0  0  0  0  0  0  0  0  0  0  0  0
    5.8220   13.3150   39.7520   C 0  0  0  0  0  0  0  0  0  0  0  0
    6.9110   13.0670   38.7320   C 0  0  0  0  0  0  0  0  0  0  0  0
    7.2680   11.7740   38.4250   C 0  0  0  0  0  0  0  0  0  0  0  0
    7.5420   14.1430   38.1310   C 0  0  0  0  0  0  0  0  0  0  0  0
    8.2690   11.5820   37.5010   C 0  0  0  0  0  0  0  0  0  0  0  0
    8.5410   13.9490   37.2100   C 0  0  0  0  0  0  0  0  0  0  0  0
    8.8990   12.6610   36.8980   C 0  0  0  0  0  0  0  0  0  0  0  0
    1.5240   10.7800   42.7580   N 0  0  0  0  0  0  0  0  0  0  0  0
    1.8820    9.4760   43.2270   C 0  0  0  0  0  0  0  0  0  0  0  0
    0.8310    9.2020   44.2720   C 0  0  0  0  0  0  0  0  0  0  0  0
    0.5940    9.9730   45.2060   O 0  0  0  0  0  0  0  0  0  0  0  0
    3.2720    9.3430   43.9190   C 0  0  0  0  0  0  0  0  0  0  0  0
    3.5120    7.8660   44.2020   C 0  0  0  0  0  0  0  0  0  0  0  0
    4.4250    9.8050   43.0380   C 0  0  0  0  0  0  0  0  0  0  0  0
    0.1870    8.0630   44.1370   N 0  0  0  0  0  0  0  0  0  0  0  0
   -0.8350    7.6230   45.0770   C 0  0  0  0  0  0  0  0  0  0  0  0
   -0.3580    6.2630   45.6270   C 0  0  0  0  0  0  0  0  0  0  0  0
    0.6610    5.6870   45.2290   O 0  0  0  0  0  0  0  0  0  0  0  0
   -2.2130    7.4720   44.3940   C 0  0  0  0  0  0  0  0  0  0  0  0
   -2.1560    6.4120   43.3150   C 0  0  0  0  0  0  0  0  0  0  0  0
   -2.6520    8.8320   43.8880   C 0  0  0  0  0  0  0  0  0  0  0  0
   -0.1460    5.0100   47.6450   C 0  0  0  0  0  0  0  0  0  0  0  0
   -1.0360    5.6020   46.6760   O 0  0  0  0  0  0  0  0  0  0  0  0
  1  2  1  0  0  0  0
  2  3  1  0  0  0  0
  2  5  1  0  0  0  0
  3  4  2  0  0  0  0
  6  7  1  0  0  0  0
  7  8  1  0  0  0  0
  7 10  1  0  0  0  0
  8  9  2  0  0  0  0
 18 17  1  0  0  0  0
 17 15  1  0  0  0  0
 17 19  1  0  0  0  0
 15 16  1  0  0  0  0
 15 14  1  0  0  0  0
 19 20  1  0  0  0  0
 20 21  2  0  0  0  0
 20 22  1  0  0  0  0
 21 23  1  0  0  0  0
 22 24  2  0  0  0  0
 23 25  2  0  0  0  0
 24 25  1  0  0  0  0
 13 11  1  0  0  0  0
 11 12  2  0  0  0  0
 26 27  1  0  0  0  0
 27 28  1  0  0  0  0
 27 30  1  0  0  0  0
 28 29  2  0  0  0  0
 30 31  1  0  0  0  0
 30 32  1  0  0  0  0
 33 34  1  0  0  0  0
 34 35  1  0  0  0  0
 34 37  1  0  0  0  0
 35 36  2  0  0  0  0
 37 38  1  0  0  0  0
 37 39  1  0  0  0  0
 40 41  1  0  0  0  0
  3  6  1  0  0  0  0
  8 18  1  0  0  0  0
 14 13  1  0  0  0  0
 11 26  1  0  0  0  0
 28 33  1  0  0  0  0
 35 41  1  0  0  0  0
M  END
>  <InstanceId>
1SIV_PSI_B_100

>  <ChemCompId>
PSI

>  <PdbId>
1SIV

>  <ChainId>
B

>  <ResidueNumber>
100

>  <InsertionCode>


>  <Model>
1

>  <AltIds>


>  <MissingHeavyAtoms>
0

>  <ObservedFormula>
C29 N5 O7

>  <Name>
methyl N-{(4S,5S)-5-[(L-alanyl-L-alanyl)amino]-4-hydroxy-6-phenylhexanoyl}-L-valyl-L-valinate

>  <SystematicName>
methyl (2S)-2-[[(2S)-2-[[(4S,5S)-5-[[(2S)-2-[[(2S)-2-azanylpropanoyl]amino]propanoyl]amino]-4-hydroxy-6-phenyl-hexanoyl]amino]-3-methyl-butanoyl]amino]-3-methyl-butanoate

>  <Synonyms>
SKF 107457

>  <Type>
peptide-like

>  <Formula>
C29 H47 N5 O7

>  <MolecularWeight>
577.713

>  <ModifiedDate>
2011-06-04

>  <Parent>


>  <OneLetterCode>


>  <SubcomponentList>
ALA ALA FOG VAL VME

>  <AmbiguousFlag>
N

>  <InChI>
InChI=1S/C29H47N5O7/c1-16(2)24(28(39)34-25(17(3)4)29(40)41-7)33-23(36)14-13-22(35)21(15-20-11-9-8-10-12-20)32-27(38)19(6)31-26(37)18(5)30/h8-12,16-19,21-22,24-25,35H,13-15,30H2,1-7H3,(H,31,37)(H,32,38)(H,33,36)(H,34,39)/t18-,19-,21-,22-,24-,25-/m0/s1

>  <InChIKey>
IUDCAKKZLXFOQA-QJAPXLAMSA-N

>  <SMILES>
C[C@@H](C(=O)N[C@@H](C)C(=O)N[C@@H](Cc1ccccc1)[C@H](CCC(=O)N[C@@H](C(C)C)C(=O)N[C@@H](C(C)C)C(=O)OC)O)N

$$$$
