1LZQ_0ZQ_A_201
  RCSB PDB08012015253D
Coordinates from PDB:1LZQ:A:201 Model:1 without hydrogens
 50 52  0  0  0  0            999 V2000
  -22.0500   39.8290   30.2730   O 0  0  0  0  0  0  0  0  0  0  0  0
  -21.2040   39.1790   30.8690   C 0  0  0  0  0  0  0  0  0  0  0  0
  -21.2400   38.8070   32.2120   O 0  0  0  0  0  0  0  0  0  0  0  0
  -22.4690   38.8660   33.0960   C 0  0  0  0  0  0  0  0  0  0  0  0
  -22.0300   38.3700   34.4650   C 0  0  0  0  0  0  0  0  0  0  0  0
  -23.5510   37.9510   32.5250   C 0  0  0  0  0  0  0  0  0  0  0  0
  -22.9610   40.3120   33.1770   C 0  0  0  0  0  0  0  0  0  0  0  0
  -20.0420   38.6920   30.3250   N 0  0  0  0  0  0  0  0  0  0  0  0
  -19.6820   38.8830   28.9150   C 0  0  0  0  0  0  0  0  0  0  0  0
  -19.8910   37.5850   28.1320   C 0  0  0  0  0  0  0  0  0  0  0  0
  -18.2130   39.3140   28.7860   C 0  0  0  0  0  0  0  0  0  0  0  0
  -17.9130   40.6630   29.3860   C 0  0  0  0  0  0  0  0  0  0  0  0
  -16.6420   40.9500   29.8750   C 0  0  0  0  0  0  0  0  0  0  0  0
  -18.8950   41.6610   29.4400   C 0  0  0  0  0  0  0  0  0  0  0  0
  -16.3470   42.2090   30.4100   C 0  0  0  0  0  0  0  0  0  0  0  0
  -18.6100   42.9220   29.9730   C 0  0  0  0  0  0  0  0  0  0  0  0
  -17.3310   43.1940   30.4590   C 0  0  0  0  0  0  0  0  0  0  0  0
  -21.1740   37.5450   27.3210   C 0  0  0  0  0  0  0  0  0  0  0  0
  -21.8560   36.2550   27.4400   N 0  0  0  0  0  0  0  0  0  0  0  0
  -23.2170   36.2190   26.9060   C 0  0  0  0  0  0  0  0  0  0  0  0
  -23.5330   37.2710   25.8460   C 0  0  0  0  0  0  0  0  0  0  0  0
  -23.8410   38.4130   26.1720   O 0  0  0  0  0  0  0  0  0  0  0  0
  -24.2470   36.3540   28.0300   C 0  0  0  0  0  0  0  0  0  0  0  0
  -25.6690   36.4240   27.5340   C 0  0  0  0  0  0  0  0  0  0  0  0
  -26.4760   37.5170   27.8420   C 0  0  0  0  0  0  0  0  0  0  0  0
  -26.1920   35.4110   26.7340   C 0  0  0  0  0  0  0  0  0  0  0  0
  -27.7850   37.6110   27.3670   C 0  0  0  0  0  0  0  0  0  0  0  0
  -27.4990   35.4920   26.2470   C 0  0  0  0  0  0  0  0  0  0  0  0
  -28.2990   36.6000   26.5670   C 0  0  0  0  0  0  0  0  0  0  0  0
  -23.4710   36.8670   24.5820   N 0  0  0  0  0  0  0  0  0  0  0  0
  -23.7710   37.7480   23.4620   C 0  0  0  0  0  0  0  0  0  0  0  0
  -24.6120   36.9810   22.4450   C 0  0  0  0  0  0  0  0  0  0  0  0
  -24.3110   35.8300   22.1120   O 0  0  0  0  0  0  0  0  0  0  0  0
  -22.4700   38.2480   22.8160   C 0  0  0  0  0  0  0  0  0  0  0  0
  -22.6500   39.0670   21.5350   C 0  0  0  0  0  0  0  0  0  0  0  0
  -22.9140   38.1990   20.3100   C 0  0  0  0  0  0  0  0  0  0  0  0
  -23.2640   38.7470   19.2400   O 0  0  0  0  0  0  0  0  0  0  0  0
  -22.7650   36.9640   20.4180   O 0  0  0  0  0  0  0  0  0  0  0  0
  -25.6750   37.6110   21.9620   N 0  0  0  0  0  0  0  0  0  0  0  0
  -26.5190   36.9610   20.9740   C 0  0  0  0  0  0  0  0  0  0  0  0
  -26.8160   37.8930   19.7970   C 0  0  0  0  0  0  0  0  0  0  0  0
  -26.9190   39.1110   19.9550   O 0  0  0  0  0  0  0  0  0  0  0  0
  -27.8170   36.4580   21.6320   C 0  0  0  0  0  0  0  0  0  0  0  0
  -28.7310   37.5540   22.1130   C 0  0  0  0  0  0  0  0  0  0  0  0
  -29.7730   38.0150   21.3100   C 0  0  0  0  0  0  0  0  0  0  0  0
  -28.5540   38.1280   23.3690   C 0  0  0  0  0  0  0  0  0  0  0  0
  -30.6240   39.0300   21.7530   C 0  0  0  0  0  0  0  0  0  0  0  0
  -29.4040   39.1490   23.8180   C 0  0  0  0  0  0  0  0  0  0  0  0
  -30.4380   39.5960   23.0090   C 0  0  0  0  0  0  0  0  0  0  0  0
  -26.9270   37.3150   18.6080   N 0  0  0  0  0  0  0  0  0  0  0  0
  1  2  2  0  0  0  0
  2  3  1  0  0  0  0
  3  4  1  0  0  0  0
  4  5  1  0  0  0  0
  4  6  1  0  0  0  0
  4  7  1  0  0  0  0
  8  9  1  0  0  0  0
  9 10  1  0  0  0  0
  9 11  1  0  0  0  0
 10 18  1  0  0  0  0
 11 12  1  0  0  0  0
 12 13  2  0  0  0  0
 12 14  1  0  0  0  0
 13 15  1  0  0  0  0
 14 16  2  0  0  0  0
 15 17  2  0  0  0  0
 16 17  1  0  0  0  0
 19 20  1  0  0  0  0
 20 21  1  0  0  0  0
 20 23  1  0  0  0  0
 21 22  2  0  0  0  0
 23 24  1  0  0  0  0
 24 25  2  0  0  0  0
 24 26  1  0  0  0  0
 25 27  1  0  0  0  0
 26 28  2  0  0  0  0
 27 29  2  0  0  0  0
 28 29  1  0  0  0  0
 30 31  1  0  0  0  0
 31 32  1  0  0  0  0
 31 34  1  0  0  0  0
 32 33  2  0  0  0  0
 34 35  1  0  0  0  0
 35 36  1  0  0  0  0
 36 37  2  0  0  0  0
 36 38  1  0  0  0  0
 39 40  1  0  0  0  0
 40 41  1  0  0  0  0
 40 43  1  0  0  0  0
 41 42  2  0  0  0  0
 43 44  1  0  0  0  0
 44 45  2  0  0  0  0
 44 46  1  0  0  0  0
 45 47  1  0  0  0  0
 46 48  2  0  0  0  0
 47 49  2  0  0  0  0
 48 49  1  0  0  0  0
  2  8  1  0  0  0  0
 18 19  1  0  0  0  0
 21 30  1  0  0  0  0
 32 39  1  0  0  0  0
 41 50  1  0  0  0  0
M  END
>  <InstanceId>
1LZQ_0ZQ_A_201

>  <ChemCompId>
0ZQ

>  <PdbId>
1LZQ

>  <ChainId>
A

>  <ResidueNumber>
201

>  <InsertionCode>


>  <Model>
1

>  <AltIds>


>  <MissingHeavyAtoms>
0

>  <ObservedFormula>
C38 N5 O7

>  <Name>
N-{(3S)-3-[(tert-butoxycarbonyl)amino]-4-phenylbutyl}-L-phenylalanyl-L-alpha-glutamyl-L-phenylalaninamide

>  <SystematicName>
(4S)-5-[[(2S)-1-azanyl-1-oxo-3-phenyl-propan-2-yl]amino]-4-[[(2S)-2-[[(3S)-3-[(2-methylpropan-2-yl)oxycarbonylamino]-4-phenyl-butyl]amino]-3-phenyl-propanoyl]amino]-5-oxo-pentanoic acid

>  <Synonyms>


>  <Type>
peptide-like

>  <Formula>
C38 H49 N5 O7

>  <MolecularWeight>
687.825

>  <ModifiedDate>
2011-07-13

>  <Parent>


>  <OneLetterCode>


>  <SubcomponentList>
BOC Q00 GLU PHE NH2

>  <AmbiguousFlag>
N

>  <InChI>
InChI=1S/C38H49N5O7/c1-38(2,3)50-37(49)41-29(23-26-13-7-4-8-14-26)21-22-40-32(25-28-17-11-6-12-18-28)36(48)42-30(19-20-33(44)45)35(47)43-31(34(39)46)24-27-15-9-5-10-16-27/h4-18,29-32,40H,19-25H2,1-3H3,(H2,39,46)(H,41,49)(H,42,48)(H,43,47)(H,44,45)/t29-,30+,31+,32+/m1/s1

>  <InChIKey>
CBWQRQVEXJTNOT-ZLESDFJESA-N

>  <SMILES>
CC(C)(C)OC(=O)N[C@H](CCN[C@@H](Cc1ccccc1)C(=O)N[C@@H](CCC(=O)O)C(=O)N[C@@H](Cc2ccccc2)C(=O)N)Cc3ccccc3

$$$$
