2YEL_WSH_A_1170
  RCSB PDB08012018223D
Coordinates from PDB:2YEL:A:1170 Model:1 without hydrogens
 32 36  0  0  0  0            999 V2000
   -8.2370   -4.7200    5.7940   C 0  0  0  0  0  0  0  0  0  0  0  0
   -9.0160  -11.4920    3.7670   C 0  0  0  0  0  0  0  0  0  0  0  0
   -7.9280   -4.4380    4.4830   C 0  0  0  0  0  0  0  0  0  0  0  0
   -9.3360   -5.4870    6.0820   C 0  0  0  0  0  0  0  0  0  0  0  0
   -8.2570   -7.1230   -0.0320   C 0  0  0  0  0  0  0  0  0  0  0  0
  -10.0570  -12.3890    3.7020   C 0  0  0  0  0  0  0  0  0  0  0  0
   -9.2780  -10.1570    3.9810   C 0  0  0  0  0  0  0  0  0  0  0  0
   -8.9100   -6.7120   -1.1740   C 0  0  0  0  0  0  0  0  0  0  0  0
   -8.7160   -4.9200    3.4640   C 0  0  0  0  0  0  0  0  0  0  0  0
  -10.1280   -5.9680    5.0620   C 0  0  0  0  0  0  0  0  0  0  0  0
   -8.8380   -6.9600    1.2010   C 0  0  0  0  0  0  0  0  0  0  0  0
  -11.3540  -11.9450    3.8480   C 0  0  0  0  0  0  0  0  0  0  0  0
  -10.5700   -9.7180    4.1320   C 0  0  0  0  0  0  0  0  0  0  0  0
  -10.1550   -6.1290   -1.0840   C 0  0  0  0  0  0  0  0  0  0  0  0
   -9.8250   -5.6880    3.7450   C 0  0  0  0  0  0  0  0  0  0  0  0
  -10.0870   -6.3740    1.2880   C 0  0  0  0  0  0  0  0  0  0  0  0
  -11.6140  -10.6120    4.0670   C 0  0  0  0  0  0  0  0  0  0  0  0
  -10.7510   -5.9560    0.1480   C 0  0  0  0  0  0  0  0  0  0  0  0
  -13.1070   -5.7760    0.9330   C 0  0  0  0  0  0  0  0  0  0  0  0
  -12.5660   -4.3120   -0.5840   C 0  0  0  0  0  0  0  0  0  0  0  0
  -10.6920   -6.1960    2.6380   C 0  0  0  0  0  0  0  0  0  0  0  0
  -14.2580   -8.2630    3.3540   C 0  0  0  0  0  0  0  0  0  0  0  0
  -12.8480   -6.8860    1.9300   C 0  0  0  0  0  0  0  0  0  0  0  0
  -11.7760   -3.5100   -1.5520   C 0  0  0  0  0  0  0  0  0  0  0  0
  -13.0080  -10.0990    4.2300   C 0  0  0  0  0  0  0  0  0  0  0  0
  -14.1890   -5.1000    0.6260   N 0  0  0  0  0  0  0  0  0  0  0  0
  -13.8480   -4.1790   -0.3390   N 0  0  0  0  0  0  0  0  0  0  0  0
  -11.9230   -6.3800    2.9510   N 0  0  0  0  0  0  0  0  0  0  0  0
  -12.0460   -5.3230    0.1950   N 0  0  0  0  0  0  0  0  0  0  0  0
  -14.0950   -7.1680    2.5910   N 0  0  0  0  0  0  0  0  0  0  0  0
  -15.2800   -8.5600    3.9600   O 0  0  0  0  0  0  0  0  0  0  0  0
  -13.1200   -8.9990    3.3430   O 0  0  0  0  0  0  0  0  0  0  0  0
  1  3  1  0  0  0  0
  1  4  2  0  0  0  0
  2  6  1  0  0  0  0
  2  7  2  0  0  0  0
  3  9  2  0  0  0  0
  4 10  1  0  0  0  0
  5  8  1  0  0  0  0
  5 11  2  0  0  0  0
  6 12  2  0  0  0  0
  7 13  1  0  0  0  0
  8 14  2  0  0  0  0
  9 15  1  0  0  0  0
 10 15  2  0  0  0  0
 11 16  1  0  0  0  0
 12 17  1  0  0  0  0
 13 17  2  0  0  0  0
 14 18  1  0  0  0  0
 15 21  1  0  0  0  0
 16 18  2  0  0  0  0
 16 21  1  0  0  0  0
 17 25  1  0  0  0  0
 18 29  1  0  0  0  0
 19 23  1  0  0  0  0
 19 26  2  0  0  0  0
 19 29  1  0  0  0  0
 20 24  1  0  0  0  0
 20 27  2  0  0  0  0
 20 29  1  0  0  0  0
 21 28  2  0  0  0  0
 22 30  1  0  0  0  0
 22 31  2  0  0  0  0
 22 32  1  0  0  0  0
 23 28  1  0  0  0  0
 23 30  1  0  0  0  0
 25 32  1  0  0  0  0
 26 27  1  0  0  0  0
M  END
>  <InstanceId>
2YEL_WSH_A_1170

>  <ChemCompId>
WSH

>  <PdbId>
2YEL

>  <ChainId>
A

>  <ResidueNumber>
1170

>  <InsertionCode>


>  <Model>
1

>  <AltIds>


>  <MissingHeavyAtoms>
0

>  <ObservedFormula>
C25 N5 O2

>  <Name>
BENZYL [(4R)-1-METHYL-6-PHENYL-4H-[1,2,4]TRIAZOLO[4,3-A][1,4]BENZODIAZEPIN-4-YL]CARBAMATE

>  <SystematicName>
phenylmethyl N-[(4R)-1-methyl-6-phenyl-4H-[1,2,4]triazolo[4,3-a][1,4]benzodiazepin-4-yl]carbamate

>  <Synonyms>


>  <Type>
non-polymer

>  <Formula>
C25 H21 N5 O2

>  <MolecularWeight>
423.467

>  <ModifiedDate>
2011-06-10

>  <Parent>


>  <OneLetterCode>


>  <SubcomponentList>


>  <AmbiguousFlag>
N

>  <InChI>
InChI=1S/C25H21N5O2/c1-17-28-29-24-23(27-25(31)32-16-18-10-4-2-5-11-18)26-22(19-12-6-3-7-13-19)20-14-8-9-15-21(20)30(17)24/h2-15,23H,16H2,1H3,(H,27,31)/t23-/m0/s1

>  <InChIKey>
TUWDLUFFAHHNEF-QHCPKHFHSA-N

>  <SMILES>
Cc1nnc2n1-c3ccccc3C(=N[C@H]2NC(=O)OCc4ccccc4)c5ccccc5

$$$$
