4QIJ_1HA_A_401
  RCSB PDB08012023013D
Coordinates from PDB:4QIJ:A:401 Model:1 without hydrogens
 61 65  0  0  0  0            999 V2000
   34.6130  -14.1480  184.4720   O 0  0  0  0  0  0  0  0  0  0  0  0
   33.4090  -13.4250  184.4960   C 0  0  0  0  0  0  0  0  0  0  0  0
   32.9960  -12.9560  183.2430   C 0  0  0  0  0  0  0  0  0  0  0  0
   33.7930  -13.2350  182.0930   C 0  0  0  0  0  0  0  0  0  0  0  0
   33.3930  -12.7810  180.8700   C 0  0  0  0  0  0  0  0  0  0  0  0
   32.2100  -12.0510  180.7640   C 0  0  0  0  0  0  0  0  0  0  0  0
   31.4250  -11.7770  181.8930   C 0  0  0  0  0  0  0  0  0  0  0  0
   31.8320  -12.2380  183.1440   C 0  0  0  0  0  0  0  0  0  0  0  0
   31.0470  -11.9660  184.2940   C 0  0  0  0  0  0  0  0  0  0  0  0
   31.4640  -12.4320  185.5440   C 0  0  0  0  0  0  0  0  0  0  0  0
   32.6280  -13.1490  185.6410   C 0  0  0  0  0  0  0  0  0  0  0  0
   33.2040  -13.7390  186.9020   C 0  0  0  0  0  0  0  0  0  0  0  0
   33.0530  -13.0940  187.9150   O 0  0  0  0  0  0  0  0  0  0  0  0
   33.2790  -15.5480  187.0200   S 0  0  0  0  0  0  0  0  0  0  0  0
   33.8480  -15.9710  188.6360   C 0  0  0  0  0  0  0  0  0  0  0  0
   32.6070  -15.6890  189.6200   C 0  0  0  0  0  0  0  0  0  0  0  0
   32.9900  -15.2980  190.9380   N 0  0  0  0  0  0  0  0  0  0  0  0
   33.8510  -16.1080  191.7310   C 0  0  0  0  0  0  0  0  0  0  0  0
   34.3080  -17.2020  191.3110   O 0  0  0  0  0  0  0  0  0  0  0  0
   34.1950  -15.6330  193.1830   C 0  0  0  0  0  0  0  0  0  0  0  0
   33.2110  -16.4210  194.0000   C 0  0  0  0  0  0  0  0  0  0  0  0
   33.2530  -16.0370  195.3950   N 0  0  0  0  0  0  0  0  0  0  0  0
   34.3850  -16.5600  196.2340   C 0  0  0  0  0  0  0  0  0  0  0  0
   35.2000  -17.2650  195.7430   O 0  0  0  0  0  0  0  0  0  0  0  0
   34.4310  -16.1900  197.7200   C 0  0  0  0  0  0  0  0  0  0  0  0
   33.1480  -15.9400  198.1260   O 0  0  0  0  0  0  0  0  0  0  0  0
   35.3420  -14.9710  197.9790   C 0  0  0  0  0  0  0  0  0  0  0  0
   36.8090  -15.3510  197.6440   C 0  0  0  0  0  0  0  0  0  0  0  0
   34.9240  -13.7680  197.1540   C 0  0  0  0  0  0  0  0  0  0  0  0
   35.2420  -14.6010  199.4430   C 0  0  0  0  0  0  0  0  0  0  0  0
   35.0380  -15.8440  200.2010   O 0  0  0  0  0  0  0  0  0  0  0  0
   34.7770  -15.7650  201.8280   P 0  0  0  0  0  0  0  0  0  0  0  0
   35.2390  -14.4820  202.3860   O 0  0  0  0  0  0  0  0  0  0  0  0
   35.4990  -16.9270  202.4520   O 0  0  0  0  0  0  0  0  0  0  0  0
   33.2390  -15.8030  202.1800   O 0  0  0  0  0  0  0  0  0  0  0  0
   32.0450  -16.6420  201.4440   P 0  0  0  0  0  0  0  0  0  0  0  0
   32.5310  -17.5270  200.2960   O 0  0  0  0  0  0  0  0  0  0  0  0
   31.3490  -17.5290  202.5000   O 0  0  0  0  0  0  0  0  0  0  0  0
   31.0190  -15.5520  200.8780   O 0  0  0  0  0  0  0  0  0  0  0  0
   30.0500  -14.9050  201.7770   C 0  0  0  0  0  0  0  0  0  0  0  0
   28.6860  -14.8990  201.0550   C 0  0  0  0  0  0  0  0  0  0  0  0
   28.7870  -14.2810  199.9100   O 0  0  0  0  0  0  0  0  0  0  0  0
   28.2870  -16.3800  200.7180   C 0  0  0  0  0  0  0  0  0  0  0  0
   26.9370  -16.5360  200.7810   O 0  0  0  0  0  0  0  0  0  0  0  0
   26.1410  -17.1830  202.0680   P 0  0  0  0  0  0  0  0  0  0  0  0
   26.2790  -16.2570  203.2380   O 0  0  0  0  0  0  0  0  0  0  0  0
   24.6210  -17.3270  201.6960   O 0  0  0  0  0  0  0  0  0  0  0  0
   26.7200  -18.6000  202.3720   O 0  0  0  0  0  0  0  0  0  0  0  0
   28.7220  -16.4860  199.2670   C 0  0  0  0  0  0  0  0  0  0  0  0
   28.0820  -17.6770  198.5690   O 0  0  0  0  0  0  0  0  0  0  0  0
   28.3670  -15.2970  198.7650   C 0  0  0  0  0  0  0  0  0  0  0  0
   29.1030  -14.9920  197.5620   N 0  0  0  0  0  0  0  0  0  0  0  0
   30.4090  -14.6000  197.5030   C 0  0  0  0  0  0  0  0  0  0  0  0
   30.7370  -14.4160  196.1860   N 0  0  0  0  0  0  0  0  0  0  0  0
   29.6230  -14.7020  195.4300   C 0  0  0  0  0  0  0  0  0  0  0  0
   28.6200  -15.0560  196.2660   C 0  0  0  0  0  0  0  0  0  0  0  0
   27.3910  -15.3910  195.7510   N 0  0  0  0  0  0  0  0  0  0  0  0
   27.1800  -15.3610  194.4000   C 0  0  0  0  0  0  0  0  0  0  0  0
   28.1990  -15.0020  193.5460   N 0  0  0  0  0  0  0  0  0  0  0  0
   29.4090  -14.6810  194.0480   C 0  0  0  0  0  0  0  0  0  0  0  0
   30.3380  -14.3320  193.0480   N 0  0  0  0  0  0  0  0  0  0  0  0
 34 32  2  0  0  0  0
 33 32  1  0  0  0  0
 32 35  1  0  0  0  0
 32 31  1  0  0  0  0
 37 36  2  0  0  0  0
 35 36  1  0  0  0  0
 31 30  1  0  0  0  0
 36 38  1  0  0  0  0
 36 39  1  0  0  0  0
 30 27  1  0  0  0  0
 29 27  1  0  0  0  0
 40 39  1  0  0  0  0
 40 41  1  0  0  0  0
 46 45  2  0  0  0  0
 27 25  1  0  0  0  0
 27 28  1  0  0  0  0
 41 43  1  0  0  0  0
 41 42  1  0  0  0  0
 25 26  1  0  0  0  0
 25 23  1  0  0  0  0
 43 44  1  0  0  0  0
 43 49  1  0  0  0  0
 45 47  1  0  0  0  0
 45 44  1  0  0  0  0
 45 48  1  0  0  0  0
 42 51  1  0  0  0  0
 24 23  2  0  0  0  0
 23 22  1  0  0  0  0
 49 51  1  0  0  0  0
 49 50  1  0  0  0  0
 51 52  1  0  0  0  0
 53 52  1  0  0  0  0
 53 54  2  0  0  0  0
 22 21  1  0  0  0  0
 52 56  1  0  0  0  0
 54 55  1  0  0  0  0
 21 20  1  0  0  0  0
 56 55  2  0  0  0  0
 56 57  1  0  0  0  0
 20 18  1  0  0  0  0
 55 60  1  0  0  0  0
 57 58  2  0  0  0  0
 18 19  2  0  0  0  0
 18 17  1  0  0  0  0
 60 61  1  0  0  0  0
 60 59  2  0  0  0  0
 58 59  1  0  0  0  0
 17 16  1  0  0  0  0
 16 15  1  0  0  0  0
 15 14  1  0  0  0  0
 13 12  2  0  0  0  0
 14 12  1  0  0  0  0
 12 11  1  0  0  0  0
 11  2  2  0  0  0  0
 11 10  1  0  0  0  0
  1  2  1  0  0  0  0
  2  3  1  0  0  0  0
 10  9  2  0  0  0  0
  9  8  1  0  0  0  0
  3  8  2  0  0  0  0
  3  4  1  0  0  0  0
  8  7  1  0  0  0  0
  4  5  2  0  0  0  0
  7  6  2  0  0  0  0
  5  6  1  0  0  0  0
M  END
>  <InstanceId>
4QIJ_1HA_A_401

>  <ChemCompId>
1HA

>  <PdbId>
4QIJ

>  <ChainId>
A

>  <ResidueNumber>
401

>  <InsertionCode>


>  <Model>
1

>  <AltIds>


>  <MissingHeavyAtoms>
0

>  <ObservedFormula>
C32 N7 O18 P3 S

>  <Name>
1-hydroxy-2-naphthoyl-CoA

>  <SystematicName>
S-[2-[3-[[(2R)-4-[[[(2R,3S,4R,5R)-5-(6-aminopurin-9-yl)-4-oxidanyl-3-phosphonooxy-oxolan-2-yl]methoxy-oxidanyl-phosphoryl]oxy-oxidanyl-phosphoryl]oxy-3,3-dimethyl-2-oxidanyl-butanoyl]amino]propanoylamino]ethyl] 1-oxidanylnaphthalene-2-carbothioate

>  <Synonyms>


>  <Type>
NON-POLYMER

>  <Formula>
C32 H42 N7 O18 P3 S

>  <MolecularWeight>
937.698

>  <ModifiedDate>
2013-05-03

>  <Parent>


>  <OneLetterCode>


>  <SubcomponentList>


>  <AmbiguousFlag>
N

>  <InChI>
InChI=1S/C32H42N7O18P3S/c1-32(2,26(43)29(44)35-10-9-21(40)34-11-12-61-31(45)19-8-7-17-5-3-4-6-18(17)23(19)41)14-54-60(51,52)57-59(49,50)53-13-20-25(56-58(46,47)48)24(42)30(55-20)39-16-38-22-27(33)36-15-37-28(22)39/h3-8,15-16,20,24-26,30,41-43H,9-14H2,1-2H3,(H,34,40)(H,35,44)(H,49,50)(H,51,52)(H2,33,36,37)(H2,46,47,48)/t20-,24-,25-,26+,30-/m1/s1

>  <InChIKey>
ZHSLHXZSNOSMQG-HSJNEKGZSA-N

>  <SMILES>
CC(C)(COP(=O)(O)OP(=O)(O)OC[C@@H]1[C@H]([C@H]([C@@H](O1)n2cnc3c2ncnc3N)O)OP(=O)(O)O)[C@H](C(=O)NCCC(=O)NCCSC(=O)c4ccc5ccccc5c4O)O

$$$$
