6GUK_FC8_A_301
  RCSB PDB08022004523D
Coordinates from PDB:6GUK:A:301 Model:1 without hydrogens
 27 30  0  0  0  0            999 V2000
   12.0560   10.3180  -13.0400   C 0  0  0  0  0  0  0  0  0  0  0  0
   13.5650    8.5230   -7.2500   C 0  0  0  0  0  0  0  0  0  0  0  0
   11.3290   10.4930  -11.8460   C 0  0  0  0  0  0  0  0  0  0  0  0
    9.3490   11.5090  -10.7210   C 0  0  0  0  0  0  0  0  0  0  0  0
    8.8740   10.4640   -9.9320   C 0  0  0  0  0  0  0  0  0  0  0  0
    9.0160   12.8190  -10.4040   C 0  0  0  0  0  0  0  0  0  0  0  0
    8.1580   13.0810   -9.3460   C 0  0  0  0  0  0  0  0  0  0  0  0
    7.6600   12.0590   -8.5890   C 0  0  0  0  0  0  0  0  0  0  0  0
    8.0040   10.7740   -8.9260   C 0  0  0  0  0  0  0  0  0  0  0  0
   12.8280    9.0310  -10.8190   C 0  0  0  0  0  0  0  0  0  0  0  0
   12.5740    8.7790   -8.3890   C 0  0  0  0  0  0  0  0  0  0  0  0
   13.7140    9.4660  -14.2290   N 0  0  0  0  0  0  0  0  0  0  0  0
   11.8830   10.8070  -14.3300   N 0  0  0  0  0  0  0  0  0  0  0  0
   12.8870   10.2710  -15.0000   C 0  0  0  0  0  0  0  0  0  0  0  0
   10.2280   11.2910  -11.7960   N 0  0  0  0  0  0  0  0  0  0  0  0
   16.2180    9.0060  -14.0640   C 0  0  0  0  0  0  0  0  0  0  0  0
   14.8790    8.6890  -14.6920   C 0  0  0  0  0  0  0  0  0  0  0  0
    7.3600    9.4480   -8.0170  Cl 0  0  0  0  0  0  0  0  0  0  0  0
   11.7140    9.8260  -10.7370   N 0  0  0  0  0  0  0  0  0  0  0  0
   13.1770    8.4040   -9.6620   N 0  0  0  0  0  0  0  0  0  0  0  0
   12.9280    8.9230   -5.9140   C 0  0  0  0  0  0  0  0  0  0  0  0
   11.5980    8.2260   -5.6840   C 0  0  0  0  0  0  0  0  0  0  0  0
   10.6360    8.4520   -6.8500   C 0  0  0  0  0  0  0  0  0  0  0  0
   11.2520    8.0320   -8.1830   C 0  0  0  0  0  0  0  0  0  0  0  0
   11.4220    6.5400   -8.2260   N 0  0  0  0  0  0  0  0  0  0  0  0
   13.5970    8.7910  -11.9000   N 0  0  0  0  0  0  0  0  0  0  0  0
   13.1450    9.4590  -13.0010   C 0  0  0  0  0  0  0  0  0  0  0  0
 14 13  2  0  0  0  0
 14 12  1  0  0  0  0
 17 12  1  0  0  0  0
 17 16  1  0  0  0  0
 13  1  1  0  0  0  0
 12 27  1  0  0  0  0
  1 27  2  0  0  0  0
  1  3  1  0  0  0  0
 27 26  1  0  0  0  0
 26 10  2  0  0  0  0
  3 15  1  0  0  0  0
  3 19  2  0  0  0  0
 15  4  1  0  0  0  0
 10 19  1  0  0  0  0
 10 20  1  0  0  0  0
  4  6  2  0  0  0  0
  4  5  1  0  0  0  0
  6  7  1  0  0  0  0
  5  9  2  0  0  0  0
 20 11  1  0  0  0  0
  7  8  2  0  0  0  0
  9  8  1  0  0  0  0
  9 18  1  0  0  0  0
 11 24  1  0  0  0  0
 11  2  1  0  0  0  0
 25 24  1  0  0  0  0
 24 23  1  0  0  0  0
  2 21  1  0  0  0  0
 23 22  1  0  0  0  0
 21 22  1  0  0  0  0
M  END
>  <InstanceId>
6GUK_FC8_A_301

>  <ChemCompId>
FC8

>  <PdbId>
6GUK

>  <ChainId>
A

>  <ResidueNumber>
301

>  <InsertionCode>


>  <Model>
1

>  <AltIds>


>  <MissingHeavyAtoms>
0

>  <ObservedFormula>
C19 N7 Cl

>  <Name>
~{N}2-[(1~{R},2~{S})-2-azanylcyclohexyl]-~{N}6-(3-chlorophenyl)-9-ethyl-purine-2,6-diamine

>  <SystematicName>
~{N}2-[(1~{R},2~{S})-2-azanylcyclohexyl]-~{N}6-(3-chlorophenyl)-9-ethyl-purine-2,6-diamine

>  <Synonyms>


>  <Type>
NON-POLYMER

>  <Formula>
C19 H24 Cl N7

>  <MolecularWeight>
385.894

>  <ModifiedDate>
2018-11-30

>  <Parent>


>  <OneLetterCode>


>  <SubcomponentList>


>  <AmbiguousFlag>
N

>  <InChI>
InChI=1S/C19H24ClN7/c1-2-27-11-22-16-17(23-13-7-5-6-12(20)10-13)25-19(26-18(16)27)24-15-9-4-3-8-14(15)21/h5-7,10-11,14-15H,2-4,8-9,21H2,1H3,(H2,23,24,25,26)/t14-,15+/m0/s1

>  <InChIKey>
UTBSBSOBZHXMHI-LSDHHAIUSA-N

>  <SMILES>
CCn1cnc2c1nc(nc2Nc3cccc(c3)Cl)N[C@@H]4CCCC[C@@H]4N

$$$$
