5KAD_OTA_A_401
  RCSB PDB08022002013D
Coordinates from PDB:5KAD:A:401 Model:1 without hydrogens
 18 19  0  0  0  0            999 V2000
   59.6610   30.3310   10.7220   N 0  0  0  0  0  0  0  0  0  0  0  0
   59.8340   28.9090   10.8540   C 0  0  0  0  0  0  0  0  0  0  0  0
   59.5640   28.3320   12.2360   C 0  0  0  0  0  0  0  0  0  0  0  0
   59.5890   29.2560   13.3230   C 0  0  0  0  0  0  0  0  0  0  0  0
   59.8550   30.7020   13.1350   C 0  0  0  0  0  0  0  0  0  0  0  0
   60.2280   31.1600   11.7820   C 0  0  0  0  0  0  0  0  0  0  0  0
   59.2460   26.8940   12.7610   S 0  0  0  0  0  0  0  0  0  0  0  0
   59.0860   27.0900   14.2940   C 0  0  0  0  0  0  0  0  0  0  0  0
   59.2800   28.4410   14.6280   C 0  0  0  0  0  0  0  0  0  0  0  0
   59.2080   28.9860   16.0800   C 0  0  0  0  0  0  0  0  0  0  0  0
   58.7770   28.2060   16.9770   O 0  0  0  0  0  0  0  0  0  0  0  0
   59.6030   30.1980   16.3550   O 0  0  0  0  0  0  0  0  0  0  0  0
   58.8140   26.1770   15.3390   N 0  0  0  0  0  0  0  0  0  0  0  0
   58.6890   24.7920   15.1830   C 0  0  0  0  0  0  0  0  0  0  0  0
   58.4150   24.0490   16.4670   C 0  0  0  0  0  0  0  0  0  0  0  0
   57.6760   24.6340   17.3400   O 0  0  0  0  0  0  0  0  0  0  0  0
   58.9170   22.9230   16.6720   O 0  0  0  0  0  0  0  0  0  0  0  0
   58.7910   24.2230   14.0760   O 0  0  0  0  0  0  0  0  0  0  0  0
  1  2  1  0  0  0  0
  1  6  1  0  0  0  0
  2  3  1  0  0  0  0
  3  4  2  0  0  0  0
  3  7  1  0  0  0  0
  4  5  1  0  0  0  0
  4  9  1  0  0  0  0
  5  6  1  0  0  0  0
  7  8  1  0  0  0  0
  8  9  2  0  0  0  0
  8 13  1  0  0  0  0
  9 10  1  0  0  0  0
 10 11  1  0  0  0  0
 10 12  2  0  0  0  0
 13 14  1  0  0  0  0
 14 15  1  0  0  0  0
 14 18  2  0  0  0  0
 15 16  1  0  0  0  0
 15 17  2  0  0  0  0
M  END
>  <InstanceId>
5KAD_OTA_A_401

>  <ChemCompId>
OTA

>  <PdbId>
5KAD

>  <ChainId>
A

>  <ResidueNumber>
401

>  <InsertionCode>


>  <Model>
1

>  <AltIds>


>  <MissingHeavyAtoms>
0

>  <ObservedFormula>
C10 N2 O5 S

>  <Name>
2-(OXALYL-AMINO)-4,5,6,7-TETRAHYDRO-THIENO[2,3-C]PYRIDINE-3-CARBOXYLIC ACID

>  <SystematicName>
2-(carboxycarbonylamino)-4,5,6,7-tetrahydrothieno[5,4-c]pyridine-3-carboxylic acid

>  <Synonyms>


>  <Type>
NON-POLYMER

>  <Formula>
C10 H10 N2 O5 S

>  <MolecularWeight>
270.262

>  <ModifiedDate>
2011-06-04

>  <Parent>


>  <OneLetterCode>


>  <SubcomponentList>


>  <AmbiguousFlag>
N

>  <InChI>
InChI=1S/C10H10N2O5S/c13-7(10(16)17)12-8-6(9(14)15)4-1-2-11-3-5(4)18-8/h11H,1-3H2,(H,12,13)(H,14,15)(H,16,17)

>  <InChIKey>
ZIBMATWHOAGNTR-UHFFFAOYSA-N

>  <SMILES>
C1CNCc2c1c(c(s2)NC(=O)C(=O)O)C(=O)O

$$$$
