3CS7_LG0_A_298
  RCSB PDB08012018463D
Coordinates from PDB:3CS7:A:298 Model:1 without hydrogens
 37 42  0  0  0  0            999 V2000
    6.4920   44.2950   62.9000   C 0  0  0  0  0  0  0  0  0  0  0  0
    7.1780   39.4260   59.5710   C 0  0  0  0  0  0  0  0  0  0  0  0
    8.3690   38.9470   57.4150   C 0  0  0  0  0  0  0  0  0  0  0  0
    7.8340   39.9650   58.3920   C 0  0  0  0  0  0  0  0  0  0  0  0
   13.0020   44.0880   66.6190   C 0  0  0  0  0  0  0  0  0  0  0  0
    4.2110   43.9350   61.9200   C 0  0  0  0  0  0  0  0  0  0  0  0
    4.7900   42.5740   61.5530   C 0  0  0  0  0  0  0  0  0  0  0  0
    9.7640   39.0120   56.8020   C 0  0  0  0  0  0  0  0  0  0  0  0
    6.6150   40.3540   60.5070   C 0  0  0  0  0  0  0  0  0  0  0  0
    7.5080   38.0970   56.5170   C 0  0  0  0  0  0  0  0  0  0  0  0
    3.4680   45.8870   64.4670   C 0  0  0  0  0  0  0  0  0  0  0  0
    5.1180   44.5310   62.9530   C 0  0  0  0  0  0  0  0  0  0  0  0
    6.6720   39.5550   54.7150   C 0  0  0  0  0  0  0  0  0  0  0  0
   11.0820   44.9150   65.3080   C 0  0  0  0  0  0  0  0  0  0  0  0
   10.6740   45.9540   64.3480   C 0  0  0  0  0  0  0  0  0  0  0  0
    9.2930   46.0160   63.8930   C 0  0  0  0  0  0  0  0  0  0  0  0
    8.3470   45.0200   64.4120   C 0  0  0  0  0  0  0  0  0  0  0  0
    8.7300   44.0190   65.4220   C 0  0  0  0  0  0  0  0  0  0  0  0
   10.1110   43.9590   65.8760   C 0  0  0  0  0  0  0  0  0  0  0  0
    7.0350   44.9820   63.9550   N 0  0  0  0  0  0  0  0  0  0  0  0
    6.0170   45.6140   64.6260   N 0  0  0  0  0  0  0  0  0  0  0  0
    6.2350   42.6430   61.2020   N 0  0  0  0  0  0  0  0  0  0  0  0
    6.7340   41.7890   60.2370   C 0  0  0  0  0  0  0  0  0  0  0  0
    7.3940   42.3360   59.0430   C 0  0  0  0  0  0  0  0  0  0  0  0
    7.9720   41.3910   58.1000   C 0  0  0  0  0  0  0  0  0  0  0  0
    7.0840   43.4520   61.9430   C 0  0  0  0  0  0  0  0  0  0  0  0
    4.8430   45.3660   64.0480   C 0  0  0  0  0  0  0  0  0  0  0  0
    8.3040   43.4460   61.8020   O 0  0  0  0  0  0  0  0  0  0  0  0
    3.5990   46.9260   65.3180   F 0  0  0  0  0  0  0  0  0  0  0  0
    2.8140   46.2820   63.3860   F 0  0  0  0  0  0  0  0  0  0  0  0
    2.8480   44.8800   65.0790   F 0  0  0  0  0  0  0  0  0  0  0  0
   12.4400   44.9310   65.6230   O 0  0  0  0  0  0  0  0  0  0  0  0
    9.4960   38.0090   57.8790   C 0  0  0  0  0  0  0  0  0  0  0  0
    6.3770   38.8800   55.9970   N 0  0  0  0  0  0  0  0  0  0  0  0
    5.1690   38.0440   55.7360   C 0  0  0  0  0  0  0  0  0  0  0  0
    5.0260   38.0480   54.2250   C 0  0  0  0  0  0  0  0  0  0  0  0
    5.3410   39.5120   53.9820   C 0  0  0  0  0  0  0  0  0  0  0  0
 26  1  1  0  0  0  0
  1 12  2  0  0  0  0
  1 20  1  0  0  0  0
  4  2  2  0  0  0  0
  2  9  1  0  0  0  0
 10  3  1  0  0  0  0
  8  3  1  0  0  0  0
  3 33  1  0  0  0  0
  3  4  1  0  0  0  0
 25  4  1  0  0  0  0
 32  5  1  0  0  0  0
  7  6  1  0  0  0  0
  6 12  1  0  0  0  0
 22  7  1  0  0  0  0
  8 33  1  0  0  0  0
 23  9  2  0  0  0  0
 34 10  1  0  0  0  0
 30 11  1  0  0  0  0
 27 11  1  0  0  0  0
 11 31  1  0  0  0  0
 11 29  1  0  0  0  0
 12 27  1  0  0  0  0
 37 13  1  0  0  0  0
 13 34  1  0  0  0  0
 15 14  2  0  0  0  0
 14 32  1  0  0  0  0
 14 19  1  0  0  0  0
 16 15  1  0  0  0  0
 16 17  2  0  0  0  0
 20 17  1  0  0  0  0
 17 18  1  0  0  0  0
 18 19  2  0  0  0  0
 20 21  1  0  0  0  0
 27 21  2  0  0  0  0
 23 22  1  0  0  0  0
 22 26  1  0  0  0  0
 24 23  1  0  0  0  0
 25 24  2  0  0  0  0
 28 26  2  0  0  0  0
 35 34  1  0  0  0  0
 36 35  1  0  0  0  0
 37 36  1  0  0  0  0
M  END
>  <InstanceId>
3CS7_LG0_A_298

>  <ChemCompId>
LG0

>  <PdbId>
3CS7

>  <ChainId>
A

>  <ResidueNumber>
298

>  <InsertionCode>


>  <Model>
1

>  <AltIds>


>  <MissingHeavyAtoms>
0

>  <ObservedFormula>
C28 N4 O2 F3

>  <Name>
1-(4-methoxyphenyl)-6-(4-(1-(pyrrolidin-1-ylmethyl)cyclopropyl)phenyl)-3-(trifluoromethyl)-5,6-dihydro-1H-pyrazolo[3,4-c]pyridin-7(4H)-one

>  <SystematicName>
1-(4-methoxyphenyl)-6-[4-[1-(pyrrolidin-1-ylmethyl)cyclopropyl]phenyl]-3-(trifluoromethyl)-4,5-dihydropyrazolo[5,4-c]pyridin-7-one

>  <Synonyms>


>  <Type>
NON-POLYMER

>  <Formula>
C28 H29 F3 N4 O2

>  <MolecularWeight>
510.551

>  <ModifiedDate>
2011-06-04

>  <Parent>


>  <OneLetterCode>


>  <SubcomponentList>


>  <AmbiguousFlag>
N

>  <InChI>
InChI=1S/C28H29F3N4O2/c1-37-22-10-8-21(9-11-22)35-24-23(25(32-35)28(29,30)31)12-17-34(26(24)36)20-6-4-19(5-7-20)27(13-14-27)18-33-15-2-3-16-33/h4-11H,2-3,12-18H2,1H3

>  <InChIKey>
VNHRSGCBTKUBAX-UHFFFAOYSA-N

>  <SMILES>
COc1ccc(cc1)n2c3c(c(n2)C(F)(F)F)CCN(C3=O)c4ccc(cc4)C5(CC5)CN6CCCC6

$$$$
