4KM2_TOP_A_202
  RCSB PDB08012022163D
Coordinates from PDB:4KM2:A:202 Model:1 without hydrogens
 21 22  0  0  0  0            999 V2000
   14.6580    2.6980   21.1010   C 0  0  0  0  0  0  0  0  0  0  0  0
   15.6810    3.4550   21.6490   N 0  0  0  0  0  0  0  0  0  0  0  0
   16.9070    3.4650   21.0230   C 0  0  0  0  0  0  0  0  0  0  0  0
   17.8780    4.2600   21.5880   N 0  0  0  0  0  0  0  0  0  0  0  0
   17.1890    2.7230   19.9350   N 0  0  0  0  0  0  0  0  0  0  0  0
   16.2150    1.9470   19.4260   C 0  0  0  0  0  0  0  0  0  0  0  0
   16.5310    1.2740   18.3300   N 0  0  0  0  0  0  0  0  0  0  0  0
   14.8770    1.9520   19.9840   C 0  0  0  0  0  0  0  0  0  0  0  0
   13.7120    1.1080   19.4330   C 0  0  0  0  0  0  0  0  0  0  0  0
   12.8440    1.9090   18.4670   C 0  0  0  0  0  0  0  0  0  0  0  0
   12.4880    1.2300   17.2970   C 0  0  0  0  0  0  0  0  0  0  0  0
   11.6020    1.8800   16.4200   C 0  0  0  0  0  0  0  0  0  0  0  0
   11.1630    1.3960   15.2110   O 0  0  0  0  0  0  0  0  0  0  0  0
   11.4210    0.0230   14.9830   C 0  0  0  0  0  0  0  0  0  0  0  0
   11.1320    3.1720   16.6530   C 0  0  0  0  0  0  0  0  0  0  0  0
   10.2540    3.8790   15.8220   O 0  0  0  0  0  0  0  0  0  0  0  0
    8.9060    3.3910   15.8540   C 0  0  0  0  0  0  0  0  0  0  0  0
   11.4650    3.8120   17.8340   C 0  0  0  0  0  0  0  0  0  0  0  0
   10.9270    5.0460   18.0710   O 0  0  0  0  0  0  0  0  0  0  0  0
   11.2990    5.7260   19.2390   C 0  0  0  0  0  0  0  0  0  0  0  0
   12.3660    3.2270   18.7440   C 0  0  0  0  0  0  0  0  0  0  0  0
  1  2  2  0  0  0  0
  1  8  1  0  0  0  0
  2  3  1  0  0  0  0
  3  4  1  0  0  0  0
  3  5  2  0  0  0  0
  5  6  1  0  0  0  0
  6  7  1  0  0  0  0
  6  8  2  0  0  0  0
  8  9  1  0  0  0  0
  9 10  1  0  0  0  0
 10 11  2  0  0  0  0
 10 21  1  0  0  0  0
 11 12  1  0  0  0  0
 12 13  1  0  0  0  0
 12 15  2  0  0  0  0
 13 14  1  0  0  0  0
 15 16  1  0  0  0  0
 15 18  1  0  0  0  0
 16 17  1  0  0  0  0
 18 19  1  0  0  0  0
 18 21  2  0  0  0  0
 19 20  1  0  0  0  0
M  END
>  <InstanceId>
4KM2_TOP_A_202

>  <ChemCompId>
TOP

>  <PdbId>
4KM2

>  <ChainId>
A

>  <ResidueNumber>
202

>  <InsertionCode>


>  <Model>
1

>  <AltIds>


>  <MissingHeavyAtoms>
0

>  <ObservedFormula>
C14 N4 O3

>  <Name>
TRIMETHOPRIM

>  <SystematicName>
5-[(3,4,5-trimethoxyphenyl)methyl]pyrimidine-2,4-diamine

>  <Synonyms>


>  <Type>
NON-POLYMER

>  <Formula>
C14 H18 N4 O3

>  <MolecularWeight>
290.318

>  <ModifiedDate>
2011-06-04

>  <Parent>


>  <OneLetterCode>


>  <SubcomponentList>


>  <AmbiguousFlag>
N

>  <InChI>
InChI=1S/C14H18N4O3/c1-19-10-5-8(6-11(20-2)12(10)21-3)4-9-7-17-14(16)18-13(9)15/h5-7H,4H2,1-3H3,(H4,15,16,17,18)

>  <InChIKey>
IEDVJHCEMCRBQM-UHFFFAOYSA-N

>  <SMILES>
COc1cc(cc(c1OC)OC)Cc2cnc(nc2N)N

$$$$
