5ULN_8JS_A_303
  RCSB PDB08022003133D
Coordinates from PDB:5ULN:A:303 Model:1 without hydrogens
 21 22  0  0  0  0            999 V2000
    1.7260    8.9670   82.3180   C 0  0  0  0  0  0  0  0  0  0  0  0
    0.9020    8.3100   84.4460   C 0  0  0  0  0  0  0  0  0  0  0  0
   -0.3360    3.6880   84.6670   C 0  0  0  0  0  0  0  0  0  0  0  0
   -2.5020    4.7220   84.8070   C 0  0  0  0  0  0  0  0  0  0  0  0
    2.7770    9.6380   82.9240   C 0  0  0  0  0  0  0  0  0  0  0  0
    1.9470    9.0150   85.0380   C 0  0  0  0  0  0  0  0  0  0  0  0
   -0.8370    2.6010   85.3810   C 0  0  0  0  0  0  0  0  0  0  0  0
   -2.9980    3.6500   85.4910   C 0  0  0  0  0  0  0  0  0  0  0  0
    0.7720    8.2900   83.0630   C 0  0  0  0  0  0  0  0  0  0  0  0
   -1.1980    4.7310   84.3720   C 0  0  0  0  0  0  0  0  0  0  0  0
    2.9080    9.6780   84.2980   C 0  0  0  0  0  0  0  0  0  0  0  0
   -2.1740    2.5690   85.7900   C 0  0  0  0  0  0  0  0  0  0  0  0
   -1.1390    6.5910   82.7740   C 0  0  0  0  0  0  0  0  0  0  0  0
   -2.2430   -0.1120   86.0610   N 0  0  0  0  0  0  0  0  0  0  0  0
   -0.3000    7.6480   82.3620   N 0  0  0  0  0  0  0  0  0  0  0  0
   -0.5800    5.7740   83.6570   N 0  0  0  0  0  0  0  0  0  0  0  0
   -2.2230    1.3840   88.0710   O 0  0  0  0  0  0  0  0  0  0  0  0
   -4.2560    1.3210   86.6260   O 0  0  0  0  0  0  0  0  0  0  0  0
    3.9580   10.3640   84.9070   F 0  0  0  0  0  0  0  0  0  0  0  0
   -2.6500    6.3740   82.1360   S 0  0  0  0  0  0  0  0  0  0  0  0
   -2.7980    1.2330   86.7480   S 0  0  0  0  0  0  0  0  0  0  0  0
 20 13  2  0  0  0  0
  1  5  2  0  0  0  0
  1  9  1  0  0  0  0
 15 13  1  0  0  0  0
 15  9  1  0  0  0  0
 13 16  1  0  0  0  0
  5 11  1  0  0  0  0
  9  2  2  0  0  0  0
 16 10  1  0  0  0  0
 11 19  1  0  0  0  0
 11  6  2  0  0  0  0
 10  3  2  0  0  0  0
 10  4  1  0  0  0  0
  2  6  1  0  0  0  0
  3  7  1  0  0  0  0
  4  8  2  0  0  0  0
  7 12  2  0  0  0  0
  8 12  1  0  0  0  0
 12 21  1  0  0  0  0
 14 21  1  0  0  0  0
 18 21  2  0  0  0  0
 21 17  2  0  0  0  0
M  END
>  <InstanceId>
5ULN_8JS_A_303

>  <ChemCompId>
8JS

>  <PdbId>
5ULN

>  <ChainId>
A

>  <ResidueNumber>
303

>  <InsertionCode>


>  <Model>
1

>  <AltIds>


>  <MissingHeavyAtoms>
0

>  <ObservedFormula>
C13 N3 O2 S2 F

>  <Name>
4-{[(4-fluorophenyl)carbamothioyl]amino}benzene-1-sulfonamide

>  <SystematicName>
1-(4-fluorophenyl)-3-(4-sulfamoylphenyl)thiourea

>  <Synonyms>


>  <Type>
NON-POLYMER

>  <Formula>
C13 H12 F N3 O2 S2

>  <MolecularWeight>
325.382

>  <ModifiedDate>
2017-10-06

>  <Parent>


>  <OneLetterCode>


>  <SubcomponentList>


>  <AmbiguousFlag>
N

>  <InChI>
InChI=1S/C13H12FN3O2S2/c14-9-1-3-10(4-2-9)16-13(20)17-11-5-7-12(8-6-11)21(15,18)19/h1-8H,(H2,15,18,19)(H2,16,17,20)

>  <InChIKey>
VUDOFEJVAFMLEC-UHFFFAOYSA-N

>  <SMILES>
c1cc(ccc1NC(=S)Nc2ccc(cc2)S(=O)(=O)N)F

$$$$
