5G1A_7H1_A_373
  RCSB PDB08022001273D
Coordinates from PDB:5G1A:A:373 Model:1 without hydrogens
 31 31  0  0  0  0            999 V2000
   51.6870   12.2710  -23.1980   O 0  0  0  0  0  0  0  0  0  0  0  0
   52.8060   12.7080  -22.9850   C 0  0  0  0  0  0  0  0  0  0  0  0
   52.8490   13.6210  -22.0950   N 0  0  0  0  0  0  0  0  0  0  0  0
   51.7100   14.1310  -21.5610   O 0  0  0  0  0  0  0  0  0  0  0  0
   54.1760   12.4570  -23.6260   C 0  0  0  0  0  0  0  0  0  0  0  0
   54.7740   13.6390  -23.7250   F 0  0  0  0  0  0  0  0  0  0  0  0
   54.0560   11.9670  -24.8320   F 0  0  0  0  0  0  0  0  0  0  0  0
   55.0940   11.5650  -22.7810   C 0  0  0  0  0  0  0  0  0  0  0  0
   54.4430   10.4370  -22.6150   F 0  0  0  0  0  0  0  0  0  0  0  0
   55.2340   12.1480  -21.6090   F 0  0  0  0  0  0  0  0  0  0  0  0
   56.4770   11.1850  -23.3390   C 0  0  0  0  0  0  0  0  0  0  0  0
   56.2970   10.4200  -24.3960   F 0  0  0  0  0  0  0  0  0  0  0  0
   57.0520   10.4210  -22.4330   F 0  0  0  0  0  0  0  0  0  0  0  0
   57.4360   12.3310  -23.7200   C 0  0  0  0  0  0  0  0  0  0  0  0
   57.3730   13.3170  -22.8480   F 0  0  0  0  0  0  0  0  0  0  0  0
   57.0520   12.8590  -24.8560   F 0  0  0  0  0  0  0  0  0  0  0  0
   58.9010   11.9080  -23.8180   C 0  0  0  0  0  0  0  0  0  0  0  0
   59.0060   10.7340  -24.3960   F 0  0  0  0  0  0  0  0  0  0  0  0
   59.3400   11.7300  -22.5890   F 0  0  0  0  0  0  0  0  0  0  0  0
   59.8290   12.9150  -24.5200   C 0  0  0  0  0  0  0  0  0  0  0  0
   59.5020   14.1630  -24.2430   F 0  0  0  0  0  0  0  0  0  0  0  0
   59.7260   12.7790  -25.8240   F 0  0  0  0  0  0  0  0  0  0  0  0
   61.2430   12.6900  -24.0290   C 0  0  0  0  0  0  0  0  0  0  0  0
   61.5800   11.5300  -23.8780   O 0  0  0  0  0  0  0  0  0  0  0  0
   62.0070   13.7750  -23.7640   N 0  0  0  0  0  0  0  0  0  0  0  0
   63.3170   13.7730  -23.3480   C 0  0  0  0  0  0  0  0  0  0  0  0
   64.0430   14.9570  -23.4880   C 0  0  0  0  0  0  0  0  0  0  0  0
   65.3980   15.0330  -23.1590   C 0  0  0  0  0  0  0  0  0  0  0  0
   66.0700   13.9150  -22.6760   C 0  0  0  0  0  0  0  0  0  0  0  0
   65.3730   12.7220  -22.5260   C 0  0  0  0  0  0  0  0  0  0  0  0
   64.0150   12.6620  -22.8540   C 0  0  0  0  0  0  0  0  0  0  0  0
 29 28  2  0  0  0  0
 29 30  1  0  0  0  0
 28 27  1  0  0  0  0
 30 31  2  0  0  0  0
 27 26  2  0  0  0  0
 31 26  1  0  0  0  0
 26 25  1  0  0  0  0
 25 23  1  0  0  0  0
 23 24  2  0  0  0  0
 23 20  1  0  0  0  0
 21 20  1  0  0  0  0
 20 22  1  0  0  0  0
 20 17  1  0  0  0  0
 19 17  1  0  0  0  0
 17 18  1  0  0  0  0
 17 14  1  0  0  0  0
 15 14  1  0  0  0  0
 14 16  1  0  0  0  0
 14 11  1  0  0  0  0
 13 11  1  0  0  0  0
 11 12  1  0  0  0  0
 11  8  1  0  0  0  0
  8 10  1  0  0  0  0
  8  9  1  0  0  0  0
  8  5  1  0  0  0  0
  7  5  1  0  0  0  0
  5  6  1  0  0  0  0
  5  2  1  0  0  0  0
  2  1  2  0  0  0  0
  2  3  1  0  0  0  0
  3  4  1  0  0  0  0
M  END
>  <InstanceId>
5G1A_7H1_A_373

>  <ChemCompId>
7H1

>  <PdbId>
5G1A

>  <ChainId>
A

>  <ResidueNumber>
373

>  <InsertionCode>


>  <Model>
1

>  <AltIds>


>  <MissingHeavyAtoms>
31

>  <ObservedFormula>
C14 N2 O3 F12

>  <Name>
2,2,3,3,4,4,5,5,6,6,7,7-dodecakis(fluoranyl)-~{N}-oxidanyl-~{N}'-phenyl-octanediamide

>  <SystematicName>
2,2,3,3,4,4,5,5,6,6,7,7-dodecakis(fluoranyl)-~{N}-oxidanyl-~{N}'-phenyl-octanediamide

>  <Synonyms>


>  <Type>
NON-POLYMER

>  <Formula>
C14 H8 F12 N2 O3

>  <MolecularWeight>
480.206

>  <ModifiedDate>
2016-11-25

>  <Parent>


>  <OneLetterCode>


>  <SubcomponentList>


>  <AmbiguousFlag>
N

>  <InChI>
InChI=1S/C14H8F12N2O3/c15-9(16,7(29)27-6-4-2-1-3-5-6)11(19,20)13(23,24)14(25,26)12(21,22)10(17,18)8(30)28-31/h1-5,31H,(H,27,29)(H,28,30)

>  <InChIKey>
PVEUUUJZCFCCIZ-UHFFFAOYSA-N

>  <SMILES>
c1ccc(cc1)NC(=O)C(C(C(C(C(C(C(=O)NO)(F)F)(F)F)(F)F)(F)F)(F)F)(F)F

$$$$
