2ZDK_50U_A_501
  RCSB PDB08012018273D
Coordinates from PDB:2ZDK:A:501 Model:1 without hydrogens
 28 30  0  0  0  0            999 V2000
  -29.0880   -0.3620   18.8720   C 0  0  0  0  0  0  0  0  0  0  0  0
  -30.5990   -0.3640   18.5680   C 0  0  0  0  0  0  0  0  0  0  0  0
  -31.0910   -1.7790   18.2420   C 0  0  0  0  0  0  0  0  0  0  0  0
  -30.6150   -2.9330   19.1270   C 0  0  0  0  0  0  0  0  0  0  0  0
  -29.1740   -2.8440   19.6310   C 0  0  0  0  0  0  0  0  0  0  0  0
  -28.7730   -1.3790   19.9770   C 0  0  0  0  0  0  0  0  0  0  0  0
  -28.5040    1.0490   19.1550   C 0  0  0  0  0  0  0  0  0  0  0  0
  -28.5150    2.0160   17.9480   C 0  0  0  0  0  0  0  0  0  0  0  0
  -27.7110    1.4180   16.7930   C 0  0  0  0  0  0  0  0  0  0  0  0
  -26.5330    1.2180   17.0320   O 0  0  0  0  0  0  0  0  0  0  0  0
  -28.2180    1.1660   15.6290   N 0  0  0  0  0  0  0  0  0  0  0  0
  -27.3600    0.6920   14.5660   C 0  0  0  0  0  0  0  0  0  0  0  0
  -26.2580    1.6720   14.2550   C 0  0  0  0  0  0  0  0  0  0  0  0
  -26.4490    2.8830   14.2990   O 0  0  0  0  0  0  0  0  0  0  0  0
  -28.4040    0.6790   13.4290   C 0  0  0  0  0  0  0  0  0  0  0  0
  -29.8010    0.6590   14.0610   C 0  0  0  0  0  0  0  0  0  0  0  0
  -29.6640    1.2570   15.4840   C 0  0  0  0  0  0  0  0  0  0  0  0
  -25.1720    1.0840   13.9540   N 0  0  0  0  0  0  0  0  0  0  0  0
  -24.0160    1.8370   13.5330   C 0  0  0  0  0  0  0  0  0  0  0  0
  -22.8910    1.6630   14.5790   C 0  0  0  0  0  0  0  0  0  0  0  0
  -23.1280    2.0080   15.9130   C 0  0  0  0  0  0  0  0  0  0  0  0
  -22.1060    1.8500   16.8660   C 0  0  0  0  0  0  0  0  0  0  0  0
  -20.8550    1.3520   16.4840   C 0  0  0  0  0  0  0  0  0  0  0  0
  -19.7110    1.1550   17.4450   C 0  0  0  0  0  0  0  0  0  0  0  0
  -19.5400    1.9560   18.4330   N 0  0  0  0  0  0  0  0  0  0  0  0
  -18.9210    0.1650   17.2410   N 0  0  0  0  0  0  0  0  0  0  0  0
  -20.6190    1.0040   15.1340   C 0  0  0  0  0  0  0  0  0  0  0  0
  -21.6500    1.1670   14.1960   C 0  0  0  0  0  0  0  0  0  0  0  0
 15 16  1  0  0  0  0
 15 12  1  0  0  0  0
 19 18  1  0  0  0  0
 19 20  1  0  0  0  0
 18 13  1  0  0  0  0
 16 17  1  0  0  0  0
 28 20  2  0  0  0  0
 28 27  1  0  0  0  0
 13 14  2  0  0  0  0
 13 12  1  0  0  0  0
 12 11  1  0  0  0  0
 20 21  1  0  0  0  0
 27 23  2  0  0  0  0
 17 11  1  0  0  0  0
 11  9  1  0  0  0  0
 21 22  2  0  0  0  0
 23 22  1  0  0  0  0
 23 24  1  0  0  0  0
  9 10  2  0  0  0  0
  9  8  1  0  0  0  0
 26 24  1  0  0  0  0
 24 25  2  0  0  0  0
  8  7  1  0  0  0  0
  3  2  1  0  0  0  0
  3  4  1  0  0  0  0
  2  1  1  0  0  0  0
  1  7  1  0  0  0  0
  1  6  1  0  0  0  0
  4  5  1  0  0  0  0
  5  6  1  0  0  0  0
M  END
>  <InstanceId>
2ZDK_50U_A_501

>  <ChemCompId>
50U

>  <PdbId>
2ZDK

>  <ChainId>
A

>  <ResidueNumber>
501

>  <InsertionCode>


>  <Model>
1

>  <AltIds>


>  <MissingHeavyAtoms>
0

>  <ObservedFormula>
C22 N4 O2

>  <Name>
(S)-N-(4-carbamimidoylbenzyl)-1-(3-cyclohexylpropanoyl)pyrrolidine-2-carboxamide

>  <SystematicName>
(2S)-N-[(4-carbamimidoylphenyl)methyl]-1-(3-cyclohexylpropanoyl)pyrrolidine-2-carboxamide

>  <Synonyms>


>  <Type>
peptide-like

>  <Formula>
C22 H32 N4 O2

>  <MolecularWeight>
384.515

>  <ModifiedDate>
2012-01-05

>  <Parent>


>  <OneLetterCode>


>  <SubcomponentList>
CXP PRO 00S

>  <AmbiguousFlag>
N

>  <InChI>
InChI=1S/C22H32N4O2/c23-21(24)18-11-8-17(9-12-18)15-25-22(28)19-7-4-14-26(19)20(27)13-10-16-5-2-1-3-6-16/h8-9,11-12,16,19H,1-7,10,13-15H2,(H3,23,24)(H,25,28)/t19-/m0/s1

>  <InChIKey>
DOTBZTLJSXFKCP-IBGZPJMESA-N

>  <SMILES>
[H]/N=C(/c1ccc(cc1)CNC(=O)[C@@H]2CCCN2C(=O)CCC3CCCCC3)\N

$$$$
