1H6H_PIB_A_150
  RCSB PDB08012015023D
Coordinates from PDB:1H6H:A:150 Model:1 without hydrogens
 35 35  0  0  0  0            999 V2000
   10.9490   20.3160    5.6510   C 0  0  0  0  0  0  0  0  0  0  0  0
   11.8630   19.2320    5.0310   C 0  0  0  0  0  0  0  0  0  0  0  0
   11.9670   18.0000    6.0020   C 0  0  0  0  0  0  0  0  0  0  0  0
   10.5280   17.4240    6.3000   C 0  0  0  0  0  0  0  0  0  0  0  0
    9.6500   18.5310    6.9530   C 0  0  0  0  0  0  0  0  0  0  0  0
    9.5400   19.7450    5.9740   C 0  0  0  0  0  0  0  0  0  0  0  0
   10.8220   21.3850    4.7020   O 0  0  0  0  0  0  0  0  0  0  0  0
   11.3240   18.8240    3.7830   O 0  0  0  0  0  0  0  0  0  0  0  0
   12.8210   17.0480    5.3580   O 0  0  0  0  0  0  0  0  0  0  0  0
   10.6080   16.3110    7.2060   O 0  0  0  0  0  0  0  0  0  0  0  0
    8.3450   18.0280    7.1970   O 0  0  0  0  0  0  0  0  0  0  0  0
    8.7370   20.7580    6.5800   O 0  0  0  0  0  0  0  0  0  0  0  0
   11.7070   22.6980    4.6800   P 0  0  0  0  0  0  0  0  0  0  0  0
   11.7850   23.2070    3.1700   O 0  0  0  0  0  0  0  0  0  0  0  0
   13.1300   22.4370    5.2810   O 0  0  0  0  0  0  0  0  0  0  0  0
   10.9450   23.7970    5.5800   O 0  0  0  0  0  0  0  0  0  0  0  0
   13.8080   16.0370    6.1510   P 0  0  0  0  0  0  0  0  0  0  0  0
   12.9260   15.0260    6.9970   O 0  0  0  0  0  0  0  0  0  0  0  0
   14.6980   16.9070    7.1270   O 0  0  0  0  0  0  0  0  0  0  0  0
   14.6690   15.2550    5.0630   O 0  0  0  0  0  0  0  0  0  0  0  0
    9.8960   24.5900    5.0580   C 0  0  0  0  0  0  0  0  0  0  0  0
   10.5070   25.9650    4.8440   C 0  0  0  0  0  0  0  0  0  0  0  0
   10.3390   26.8560    6.1000   C 0  0  0  0  0  0  0  0  0  0  0  0
    9.1200   28.8350    6.7970   C 0  0  0  0  0  0  0  0  0  0  0  0
    8.9280   30.3190    6.4550   C 0  0  0  0  0  0  0  0  0  0  0  0
    9.1290   31.3280    7.6060   C 0  0  0  0  0  0  0  0  0  0  0  0
    9.1150   32.7900    7.1320   C 0  0  0  0  0  0  0  0  0  0  0  0
   10.8730   26.6200    2.4930   C 0  0  0  0  0  0  0  0  0  0  0  0
   10.3650   27.6260    1.4670   C 0  0  0  0  0  0  0  0  0  0  0  0
   10.9480   29.0420    1.6070   C 0  0  0  0  0  0  0  0  0  0  0  0
    9.9960   29.9850    2.3420   C 0  0  0  0  0  0  0  0  0  0  0  0
   10.0380   26.5760    3.6160   O 0  0  0  0  0  0  0  0  0  0  0  0
    9.8700   28.1910    5.8160   O 0  0  0  0  0  0  0  0  0  0  0  0
    8.8100   28.3660    7.9060   O 0  0  0  0  0  0  0  0  0  0  0  0
   12.0210   26.1790    2.4290   O 0  0  0  0  0  0  0  0  0  0  0  0
  1  2  1  0  0  0  0
  1  6  1  0  0  0  0
  1  7  1  0  0  0  0
  2  3  1  0  0  0  0
  2  8  1  0  0  0  0
  3  4  1  0  0  0  0
  3  9  1  0  0  0  0
  4  5  1  0  0  0  0
  4 10  1  0  0  0  0
  5  6  1  0  0  0  0
  5 11  1  0  0  0  0
  6 12  1  0  0  0  0
  7 13  1  0  0  0  0
  9 17  1  0  0  0  0
 13 14  1  0  0  0  0
 13 15  2  0  0  0  0
 13 16  1  0  0  0  0
 16 21  1  0  0  0  0
 17 18  1  0  0  0  0
 17 19  2  0  0  0  0
 17 20  1  0  0  0  0
 21 22  1  0  0  0  0
 22 23  1  0  0  0  0
 22 32  1  0  0  0  0
 23 33  1  0  0  0  0
 24 25  1  0  0  0  0
 24 33  1  0  0  0  0
 24 34  2  0  0  0  0
 25 26  1  0  0  0  0
 26 27  1  0  0  0  0
 28 29  1  0  0  0  0
 28 32  1  0  0  0  0
 28 35  2  0  0  0  0
 29 30  1  0  0  0  0
 30 31  1  0  0  0  0
M  END
>  <InstanceId>
1H6H_PIB_A_150

>  <ChemCompId>
PIB

>  <PdbId>
1H6H

>  <ChainId>
A

>  <ResidueNumber>
150

>  <InsertionCode>


>  <Model>
1

>  <AltIds>


>  <MissingHeavyAtoms>
0

>  <ObservedFormula>
C17 O16 P2

>  <Name>
2-(BUTANOYLOXY)-1-{[(HYDROXY{[2,3,4,6-TETRAHYDROXY-5-(PHOSPHONOOXY)CYCLOHEXYL]OXY}PHOSPHORYL)OXY]METHYL}ETHYL BUTANOATE

>  <SystematicName>
[(2S)-2-butanoyloxy-3-[hydroxy-[(1S,2R,3S,4S,5R,6R)-2,3,4,6-tetrahydroxy-5-phosphonooxy-cyclohexyl]oxy-phosphoryl]oxy-propyl] butanoate

>  <Synonyms>
D-MYO-PHOSPHATIDYLINOSITOL 3-PHOSPHATED (+)-SN-1,2-DI-O-BUTANOYLGLYCERYL,3-O-PHOSPHO

>  <Type>
NON-POLYMER

>  <Formula>
C17 H32 O16 P2

>  <MolecularWeight>
554.374

>  <ModifiedDate>
2020-06-17

>  <Parent>


>  <OneLetterCode>


>  <SubcomponentList>


>  <AmbiguousFlag>
N

>  <InChI>
InChI=1S/C17H32O16P2/c1-3-5-10(18)29-7-9(31-11(19)6-4-2)8-30-35(27,28)33-17-14(22)12(20)13(21)16(15(17)23)32-34(24,25)26/h9,12-17,20-23H,3-8H2,1-2H3,(H,27,28)(H2,24,25,26)/t9-,12-,13-,14+,15+,16+,17-/m0/s1

>  <InChIKey>
NKJZZWLREOAJGO-HODIZBBFSA-N

>  <SMILES>
CCCC(=O)OC[C@@H](CO[P@](=O)(O)O[C@H]1[C@@H]([C@H]([C@@H]([C@H]([C@H]1O)OP(=O)(O)O)O)O)O)OC(=O)CCC

$$$$
