6FUI_E7W_A_301
  RCSB PDB08022004433D
Coordinates from PDB:6FUI:A:301 Model:1 without hydrogens
 29 32  0  0  0  0            999 V2000
    7.0090    9.7010    0.8850   N 0  0  0  0  0  0  0  0  0  0  0  0
    8.9910    8.5170    1.2110   C 0  0  0  0  0  0  0  0  0  0  0  0
    9.8400    9.7850    1.3250   C 0  0  0  0  0  0  0  0  0  0  0  0
   10.5330   10.0990    0.0140   C 0  0  0  0  0  0  0  0  0  0  0  0
    9.4250   10.5400   -0.8140   C 0  0  0  0  0  0  0  0  0  0  0  0
    3.1910    9.2470    1.8090   C 0  0  0  0  0  0  0  0  0  0  0  0
    8.3530    6.7390    2.5510   O 0  0  0  0  0  0  0  0  0  0  0  0
    8.5810    8.0250    2.5560   C 0  0  0  0  0  0  0  0  0  0  0  0
    8.5770    8.8170    3.5160   O 0  0  0  0  0  0  0  0  0  0  0  0
    8.4230    9.4660   -1.0300   C 0  0  0  0  0  0  0  0  0  0  0  0
    7.8520    8.7310    0.2550   C 0  0  0  0  0  0  0  0  0  0  0  0
    5.7620    9.4690    1.2330   C 0  0  0  0  0  0  0  0  0  0  0  0
    5.1730    8.2650    1.2220   N 0  0  0  0  0  0  0  0  0  0  0  0
    3.9450    8.0210    1.5250   C 0  0  0  0  0  0  0  0  0  0  0  0
    1.8380    9.1610    2.1090   C 0  0  0  0  0  0  0  0  0  0  0  0
    1.0990   10.3750    2.2900   C 0  0  0  0  0  0  0  0  0  0  0  0
    1.6910   11.6290    2.1640   C 0  0  0  0  0  0  0  0  0  0  0  0
    3.0090   11.7340    1.8450   C 0  0  0  0  0  0  0  0  0  0  0  0
    3.8090   10.5250    1.7420   C 0  0  0  0  0  0  0  0  0  0  0  0
    5.0620   10.6680    1.3480   N 0  0  0  0  0  0  0  0  0  0  0  0
    3.4080    6.7530    1.6470   N 0  0  0  0  0  0  0  0  0  0  0  0
    3.9320    5.5180    1.5190   C 0  0  0  0  0  0  0  0  0  0  0  0
    5.2770    5.2440    1.7010   C 0  0  0  0  0  0  0  0  0  0  0  0
    5.8120    3.9390    1.5510   C 0  0  0  0  0  0  0  0  0  0  0  0
    5.0190    2.9050    1.1630   C 0  0  0  0  0  0  0  0  0  0  0  0
    3.7310    3.1930    0.8380   C 0  0  0  0  0  0  0  0  0  0  0  0
    3.2370    4.4710    1.0840   C 0  0  0  0  0  0  0  0  0  0  0  0
    2.8810    2.0480    0.3220   C 0  0  0  0  0  0  0  0  0  0  0  0
    2.2360    1.3790    1.3760   N 0  0  0  0  0  0  0  0  0  0  0  0
 10  5  1  0  0  0  0
 10 11  1  0  0  0  0
  5  4  1  0  0  0  0
  4  3  1  0  0  0  0
 11  1  1  0  0  0  0
 11  2  1  0  0  0  0
 28 26  1  0  0  0  0
 28 29  1  0  0  0  0
 26 27  2  0  0  0  0
 26 25  1  0  0  0  0
  1 12  1  0  0  0  0
 27 22  1  0  0  0  0
 25 24  2  0  0  0  0
  2  3  1  0  0  0  0
  2  8  1  0  0  0  0
 13 12  2  0  0  0  0
 13 14  1  0  0  0  0
 12 20  1  0  0  0  0
 20 19  2  0  0  0  0
 22 21  1  0  0  0  0
 22 23  2  0  0  0  0
 14 21  1  0  0  0  0
 14  6  2  0  0  0  0
 24 23  1  0  0  0  0
 19  6  1  0  0  0  0
 19 18  1  0  0  0  0
  6 15  1  0  0  0  0
 18 17  2  0  0  0  0
 15 16  2  0  0  0  0
 17 16  1  0  0  0  0
  7  8  2  0  0  0  0
  8  9  1  0  0  0  0
M  END
>  <InstanceId>
6FUI_E7W_A_301

>  <ChemCompId>
E7W

>  <PdbId>
6FUI

>  <ChainId>
A

>  <ResidueNumber>
301

>  <InsertionCode>


>  <Model>
1

>  <AltIds>


>  <MissingHeavyAtoms>
0

>  <ObservedFormula>
C22 N5 O2

>  <Name>
(1~{R},2~{S})-2-[[4-[[3-(aminomethyl)phenyl]amino]quinazolin-2-yl]amino]cyclohexane-1-carboxylic acid

>  <SystematicName>
(1~{R},2~{S})-2-[[4-[[3-(aminomethyl)phenyl]amino]quinazolin-2-yl]amino]cyclohexane-1-carboxylic acid

>  <Synonyms>


>  <Type>
NON-POLYMER

>  <Formula>
C22 H25 N5 O2

>  <MolecularWeight>
391.466

>  <ModifiedDate>
2018-06-01

>  <Parent>


>  <OneLetterCode>


>  <SubcomponentList>


>  <AmbiguousFlag>
N

>  <InChI>
InChI=1S/C22H25N5O2/c23-13-14-6-5-7-15(12-14)24-20-16-8-1-3-10-18(16)25-22(27-20)26-19-11-4-2-9-17(19)21(28)29/h1,3,5-8,10,12,17,19H,2,4,9,11,13,23H2,(H,28,29)(H2,24,25,26,27)/t17-,19+/m1/s1

>  <InChIKey>
HGCXJWRMCKMKEG-MJGOQNOKSA-N

>  <SMILES>
c1ccc2c(c1)c(nc(n2)N[C@H]3CCCC[C@H]3C(=O)O)Nc4cccc(c4)CN

$$$$
