2QRL_OGA_A_500
  RCSB PDB08012017513D
Coordinates from PDB:2QRL:A:500 Model:1 without hydrogens
 10  9  0  0  0  0            999 V2000
   44.4200   54.5490   16.2100   C 0  0  0  0  0  0  0  0  0  0  0  0
   45.1230   53.8940   17.3170   C 0  0  0  0  0  0  0  0  0  0  0  0
   46.2560   54.3270   19.4840   C 0  0  0  0  0  0  0  0  0  0  0  0
   46.6180   55.5610   20.2870   C 0  0  0  0  0  0  0  0  0  0  0  0
   44.1960   55.7740   16.3160   O 0  0  0  0  0  0  0  0  0  0  0  0
   44.0210   53.8850   15.2300   O 0  0  0  0  0  0  0  0  0  0  0  0
   45.2590   52.6740   17.3840   O 0  0  0  0  0  0  0  0  0  0  0  0
   47.0710   55.3280   21.4390   O 0  0  0  0  0  0  0  0  0  0  0  0
   45.5520   54.7050   18.2640   N 0  0  0  0  0  0  0  0  0  0  0  0
   46.4710   56.7320   19.8030   O 0  0  0  0  0  0  0  0  0  0  0  0
  1  2  1  0  0  0  0
  1  5  2  0  0  0  0
  1  6  1  0  0  0  0
  2  7  2  0  0  0  0
  2  9  1  0  0  0  0
  3  4  1  0  0  0  0
  3  9  1  0  0  0  0
  4  8  1  0  0  0  0
  4 10  2  0  0  0  0
M  END
>  <InstanceId>
2QRL_OGA_A_500

>  <ChemCompId>
OGA

>  <PdbId>
2QRL

>  <ChainId>
A

>  <ResidueNumber>
500

>  <InsertionCode>


>  <Model>
1

>  <AltIds>


>  <MissingHeavyAtoms>
0

>  <ObservedFormula>
C4 N O5

>  <Name>
N-OXALYLGLYCINE

>  <SystematicName>
2-(carboxymethylamino)-2-oxo-ethanoic acid

>  <Synonyms>


>  <Type>
NON-POLYMER

>  <Formula>
C4 H5 N O5

>  <MolecularWeight>
147.086

>  <ModifiedDate>
2011-06-04

>  <Parent>


>  <OneLetterCode>


>  <SubcomponentList>


>  <AmbiguousFlag>
N

>  <InChI>
InChI=1S/C4H5NO5/c6-2(7)1-5-3(8)4(9)10/h1H2,(H,5,8)(H,6,7)(H,9,10)

>  <InChIKey>
BIMZLRFONYSTPT-UHFFFAOYSA-N

>  <SMILES>
C(C(=O)O)NC(=O)C(=O)O

$$$$
