5EFH_FKS_D_2004
  RCSB PDB08022001133D
Coordinates from PDB:5EFH:D:2004 Model:1 without hydrogens
 17 16  0  0  0  0            999 V2000
   77.9900  190.1850  130.6040   C 0  0  0  0  0  0  0  0  0  0  0  0
   78.4240  189.2870  131.7940   C 0  0  0  0  0  0  0  0  0  0  0  0
   79.8310  189.6790  132.3360   C 0  0  0  0  0  0  0  0  0  0  0  0
   81.2150  189.6810  134.2430   C 0  0  0  0  0  0  0  0  0  0  0  0
   81.8250  188.7200  135.2760   C 0  0  0  0  0  0  0  0  0  0  0  0
   82.9800  189.3530  136.0530   C 0  0  0  0  0  0  0  0  0  0  0  0
   83.7110  188.3520  136.9420   C 0  0  0  0  0  0  0  0  0  0  0  0
   84.6780  189.0510  137.8840   C 0  0  0  0  0  0  0  0  0  0  0  0
   85.4970  188.0730  138.7080   C 0  0  0  0  0  0  0  0  0  0  0  0
   86.4260  188.8200  139.6510   C 0  0  0  0  0  0  0  0  0  0  0  0
   87.1920  189.6870  138.9860   F 0  0  0  0  0  0  0  0  0  0  0  0
   87.2130  187.9240  140.2540   F 0  0  0  0  0  0  0  0  0  0  0  0
   85.7060  189.4810  140.5530   F 0  0  0  0  0  0  0  0  0  0  0  0
   80.0380  189.1180  133.6580   N 0  0  0  0  0  0  0  0  0  0  0  0
   76.6100  189.9220  130.2500   N 0  0  0  0  0  0  0  0  0  0  0  0
   84.6080  187.2690  139.4500   O 0  0  0  0  0  0  0  0  0  0  0  0
   86.3070  187.2670  137.8780   O 0  0  0  0  0  0  0  0  0  0  0  0
 16  9  1  0  0  0  0
 12 10  1  0  0  0  0
 17  9  1  0  0  0  0
  9 10  1  0  0  0  0
  9  8  1  0  0  0  0
 10 13  1  0  0  0  0
 10 11  1  0  0  0  0
  1 15  1  0  0  0  0
  1  2  1  0  0  0  0
  7  8  1  0  0  0  0
  7  6  1  0  0  0  0
  5  6  1  0  0  0  0
  5  4  1  0  0  0  0
  3  2  1  0  0  0  0
  3 14  1  0  0  0  0
 14  4  1  0  0  0  0
M  END
>  <InstanceId>
5EFH_FKS_D_2004

>  <ChemCompId>
FKS

>  <PdbId>
5EFH

>  <ChainId>
D

>  <ResidueNumber>
2004

>  <InsertionCode>


>  <Model>
1

>  <AltIds>


>  <MissingHeavyAtoms>
0

>  <ObservedFormula>
C10 N2 O2 F3

>  <Name>
7-[(3-aminopropyl)amino]-1,1,1-trifluoroheptane-2,2-diol

>  <SystematicName>
7-(3-azanylpropylamino)-1,1,1-tris(fluoranyl)heptane-2,2-diol

>  <Synonyms>


>  <Type>
NON-POLYMER

>  <Formula>
C10 H21 F3 N2 O2

>  <MolecularWeight>
258.281

>  <ModifiedDate>
2015-07-24

>  <Parent>


>  <OneLetterCode>


>  <SubcomponentList>


>  <AmbiguousFlag>
N

>  <InChI>
InChI=1S/C10H21F3N2O2/c11-10(12,13)9(16,17)5-2-1-3-7-15-8-4-6-14/h15-17H,1-8,14H2

>  <InChIKey>
IVRAKANOVJJYCX-UHFFFAOYSA-N

>  <SMILES>
C(CCC(C(F)(F)F)(O)O)CCNCCCN

$$$$
