5EI3_5O8_A_301
  RCSB PDB08022001133D
Coordinates from PDB:5EI3:A:301 Model:1 without hydrogens
 34 37  0  0  0  0            999 V2000
    5.2880  -10.4850   -4.5380   C 0  0  0  0  0  0  0  0  0  0  0  0
    4.7020  -11.1250   -5.6210   C 0  0  0  0  0  0  0  0  0  0  0  0
    3.3410  -11.3880   -5.6290   C 0  0  0  0  0  0  0  0  0  0  0  0
    6.8280  -10.9050   -6.0030   C 0  0  0  0  0  0  0  0  0  0  0  0
    2.5830  -10.9960   -4.5270   N 0  0  0  0  0  0  0  0  0  0  0  0
    2.5110   -9.9760   -2.4020   N 0  0  0  0  0  0  0  0  0  0  0  0
    4.5430  -10.1160   -3.4870   N 0  0  0  0  0  0  0  0  0  0  0  0
    7.1270  -13.9760   -7.7510   C 0  0  0  0  0  0  0  0  0  0  0  0
    7.4020  -15.3270   -7.5710   C 0  0  0  0  0  0  0  0  0  0  0  0
    6.3820  -16.2060   -7.2230   C 0  0  0  0  0  0  0  0  0  0  0  0
    5.0850  -15.7350   -7.0540   C 0  0  0  0  0  0  0  0  0  0  0  0
    4.8110  -14.3840   -7.2350   C 0  0  0  0  0  0  0  0  0  0  0  0
    5.8310  -13.5040   -7.5830   C 0  0  0  0  0  0  0  0  0  0  0  0
    5.5200  -12.0220   -7.7790   C 0  0  0  0  0  0  0  0  0  0  0  0
    5.6770  -11.3540   -6.4840   N 0  3  0  0  0  0  0  0  0  0  0  0
    2.8150  -11.9540   -6.5850   O 0  0  0  0  0  0  0  0  0  0  0  0
    3.2230  -10.3550   -3.4590   C 0  0  0  0  0  0  0  0  0  0  0  0
    6.5880  -10.3680   -4.8080   N 0  0  0  0  0  0  0  0  0  0  0  0
    7.6350   -9.7540   -3.9530   C 0  0  0  0  0  0  0  0  0  0  0  0
    8.4810  -10.8450   -3.4570   O 0  0  0  0  0  0  0  0  0  0  0  0
    7.1490   -8.9640   -2.7740   C 0  0  0  0  0  0  0  0  0  0  0  0
    8.1290   -7.9860   -2.4170   O 0  0  0  0  0  0  0  0  0  0  0  0
    7.0940  -10.0480   -1.6980   C 0  0  0  0  0  0  0  0  0  0  0  0
    7.4390   -9.4590   -0.4630   O 0  0  0  0  0  0  0  0  0  0  0  0
    8.2070  -11.0500   -2.0520   C 0  0  0  0  0  0  0  0  0  0  0  0
    7.8220  -12.5420   -1.7650   C 0  0  0  0  0  0  0  0  0  0  0  0
    6.3540  -12.6650   -1.9260   N 0  0  0  0  0  0  0  0  0  0  0  0
    5.8750  -13.7260   -3.1000   S 0  0  0  0  0  0  0  0  0  0  0  0
    6.8760  -13.7370   -4.2170   O 0  0  0  0  0  0  0  0  0  0  0  0
    4.5270  -13.3310   -3.6260   O 0  0  0  0  0  0  0  0  0  0  0  0
    5.7830  -15.3750   -2.3340   C 0  0  0  0  0  0  0  0  0  0  0  0
    6.9820  -15.7160   -1.8720   F 0  0  0  0  0  0  0  0  0  0  0  0
    4.9130  -15.3480   -1.3300   F 0  0  0  0  0  0  0  0  0  0  0  0
    5.3880  -16.2640   -3.2400   F 0  0  0  0  0  0  0  0  0  0  0  0
 14 13  1  0  0  0  0
 14 15  1  0  0  0  0
  8 13  2  0  0  0  0
  8  9  1  0  0  0  0
 13 12  1  0  0  0  0
  9 10  2  0  0  0  0
 12 11  2  0  0  0  0
 10 11  1  0  0  0  0
 16  3  2  0  0  0  0
 15  4  2  0  0  0  0
 15  2  1  0  0  0  0
  4 18  1  0  0  0  0
  3  2  1  0  0  0  0
  3  5  1  0  0  0  0
  2  1  2  0  0  0  0
 18  1  1  0  0  0  0
 18 19  1  0  0  0  0
  1  7  1  0  0  0  0
  5 17  1  0  0  0  0
 29 28  2  0  0  0  0
 19 20  1  0  0  0  0
 19 21  1  0  0  0  0
 30 28  2  0  0  0  0
  7 17  2  0  0  0  0
 17  6  1  0  0  0  0
 20 25  1  0  0  0  0
 34 31  1  0  0  0  0
 28 31  1  0  0  0  0
 28 27  1  0  0  0  0
 21 22  1  0  0  0  0
 21 23  1  0  0  0  0
 31 32  1  0  0  0  0
 31 33  1  0  0  0  0
 25 26  1  0  0  0  0
 25 23  1  0  0  0  0
 27 26  1  0  0  0  0
 23 24  1  0  0  0  0
M  CHG  1  15   1
M  END
>  <InstanceId>
5EI3_5O8_A_301

>  <ChemCompId>
5O8

>  <PdbId>
5EI3

>  <ChainId>
A

>  <ResidueNumber>
301

>  <InsertionCode>


>  <Model>
1

>  <AltIds>


>  <MissingHeavyAtoms>
0

>  <ObservedFormula>
C18 N6 O6 S F3

>  <Name>
~{N}-[[(2~{R},3~{S},4~{R},5~{R})-5-[2-azanyl-6-oxidanylidene-7-(phenylmethyl)-1~{H}-purin-7-ium-9-yl]-3,4-bis(oxidanyl)oxolan-2-yl]methyl]-1,1,1-tris(fluoranyl)methanesulfonamide

>  <SystematicName>
~{N}-[[(2~{R},3~{S},4~{R},5~{R})-5-[2-azanyl-6-oxidanylidene-7-(phenylmethyl)-1~{H}-purin-7-ium-9-yl]-3,4-bis(oxidanyl)oxolan-2-yl]methyl]-1,1,1-tris(fluoranyl)methanesulfonamide

>  <Synonyms>


>  <Type>
NON-POLYMER

>  <Formula>
C18 H20 F3 N6 O6 S

>  <MolecularWeight>
505.448

>  <ModifiedDate>
2016-09-02

>  <Parent>


>  <OneLetterCode>


>  <SubcomponentList>


>  <AmbiguousFlag>
N

>  <InChI>
InChI=1S/C18H19F3N6O6S/c19-18(20,21)34(31,32)23-6-10-12(28)13(29)16(33-10)27-8-26(7-9-4-2-1-3-5-9)11-14(27)24-17(22)25-15(11)30/h1-5,8,10,12-13,16,23,28-29H,6-7H2,(H2-,22,24,25,30)/p+1/t10-,12-,13-,16-/m1/s1

>  <InChIKey>
NMFHLBUCTTXCHX-XNIJJKJLSA-O

>  <SMILES>
c1ccc(cc1)C[n+]2cn(c3c2C(=O)NC(=N3)N)[C@H]4[C@@H]([C@@H]([C@H](O4)CNS(=O)(=O)C(F)(F)F)O)O

$$$$
