5AAN_XOC_A_1189
  RCSB PDB08022000443D
Coordinates from PDB:5AAN:A:1189 Model:1 without hydrogens
 24 27  0  0  0  0            999 V2000
   -7.3860   -1.8160   10.5610   C 0  0  0  0  0  0  0  0  0  0  0  0
   -7.3000   -0.4370   10.3860   C 0  0  0  0  0  0  0  0  0  0  0  0
   -7.2870    0.3750   11.5130   C 0  0  0  0  0  0  0  0  0  0  0  0
   -7.3500   -0.2040   12.7810   C 0  0  0  0  0  0  0  0  0  0  0  0
   -7.4300   -1.5850   12.9480   C 0  0  0  0  0  0  0  0  0  0  0  0
   -7.4540   -2.4000   11.8160   C 0  0  0  0  0  0  0  0  0  0  0  0
   -6.3550   -4.3730   11.2220   C 0  0  0  0  0  0  0  0  0  0  0  0
   -5.4130   -5.1970   11.8450   C 0  0  0  0  0  0  0  0  0  0  0  0
   -4.3140   -5.6430   11.1090   C 0  0  0  0  0  0  0  0  0  0  0  0
   -4.1360   -5.2680    9.7840   C 0  0  0  0  0  0  0  0  0  0  0  0
   -5.0650   -4.4390    9.1600   C 0  0  0  0  0  0  0  0  0  0  0  0
   -6.1650   -4.0060    9.8930   C 0  0  0  0  0  0  0  0  0  0  0  0
   -8.0630   -5.5780   13.4210   C 0  0  0  0  0  0  0  0  0  0  0  0
   -9.1020   -6.6970   13.4480   C 0  0  0  0  0  0  0  0  0  0  0  0
   -7.8190   -8.5570   14.2560   C 0  0  0  0  0  0  0  0  0  0  0  0
   -7.4080   -9.9980   14.0550   C 0  0  0  0  0  0  0  0  0  0  0  0
   -7.4450  -10.2840   12.6010   C 0  0  0  0  0  0  0  0  0  0  0  0
   -8.9010  -10.1930   12.1630   C 0  0  0  0  0  0  0  0  0  0  0  0
   -9.5760   -8.9650   12.7180   C 0  0  0  0  0  0  0  0  0  0  0  0
   -7.5050   -3.8190   11.8460   N 0  0  0  0  0  0  0  0  0  0  0  0
   -8.4270   -4.5220   12.6700   N 0  0  0  0  0  0  0  0  0  0  0  0
   -8.5450   -8.0050   13.0860   N 0  0  0  0  0  0  0  0  0  0  0  0
   -7.0140   -5.6730   14.0630   O 0  0  0  0  0  0  0  0  0  0  0  0
   -7.3860   -2.9370    9.2020   S 0  0  0  0  0  0  0  0  0  0  0  0
  1  2  1  0  0  0  0
  1  6  2  0  0  0  0
  1 24  1  0  0  0  0
  2  3  2  0  0  0  0
  3  4  1  0  0  0  0
  4  5  2  0  0  0  0
  5  6  1  0  0  0  0
  6 20  1  0  0  0  0
  7  8  1  0  0  0  0
  7 12  2  0  0  0  0
  7 20  1  0  0  0  0
  8  9  2  0  0  0  0
  9 10  1  0  0  0  0
 10 11  2  0  0  0  0
 11 12  1  0  0  0  0
 12 24  1  0  0  0  0
 13 14  1  0  0  0  0
 13 21  1  0  0  0  0
 13 23  2  0  0  0  0
 14 22  1  0  0  0  0
 15 16  1  0  0  0  0
 15 22  1  0  0  0  0
 16 17  1  0  0  0  0
 17 18  1  0  0  0  0
 18 19  1  0  0  0  0
 19 22  1  0  0  0  0
 20 21  1  0  0  0  0
M  END
>  <InstanceId>
5AAN_XOC_A_1189

>  <ChemCompId>
XOC

>  <PdbId>
5AAN

>  <ChainId>
A

>  <ResidueNumber>
1189

>  <InsertionCode>


>  <Model>
1

>  <AltIds>


>  <MissingHeavyAtoms>
0

>  <ObservedFormula>
C19 N3 O S

>  <Name>
N-phenothiazin-10-yl-2-piperidin-1-yl-ethanamide

>  <SystematicName>
N-phenothiazin-10-yl-2-piperidin-1-yl-ethanamide

>  <Synonyms>
FD44

>  <Type>
non-polymer

>  <Formula>
C19 H21 N3 O S

>  <MolecularWeight>
339.455

>  <ModifiedDate>
2017-01-20

>  <Parent>


>  <OneLetterCode>


>  <SubcomponentList>


>  <AmbiguousFlag>
N

>  <InChI>
InChI=1S/C19H21N3OS/c23-19(14-21-12-6-1-7-13-21)20-22-15-8-2-4-10-17(15)24-18-11-5-3-9-16(18)22/h2-5,8-11H,1,6-7,12-14H2,(H,20,23)

>  <InChIKey>
ALVVXSSFOOYRDP-UHFFFAOYSA-N

>  <SMILES>
c1ccc2c(c1)N(c3ccccc3S2)NC(=O)CN4CCCCC4

$$$$
