3RF5_FUZ_A_202
  RCSB PDB08012020203D
Coordinates from PDB:3RF5:A:202 Model:1 without hydrogens
 16 17  0  0  0  0            999 V2000
   25.8020  -20.3750   30.8610   O 0  0  0  0  0  0  0  0  0  0  0  0
   24.8190  -21.4220   32.5720   O 0  0  0  0  0  0  0  0  0  0  0  0
   21.3700  -17.9520   31.2760   C 0  0  0  0  0  0  0  0  0  0  0  0
   21.3500  -18.9790   32.2320   C 0  0  0  0  0  0  0  0  0  0  0  0
   22.4450  -18.0460   25.7690   C 0  0  0  0  0  0  0  0  0  0  0  0
   23.3280  -19.0300   25.5810   C 0  0  0  0  0  0  0  0  0  0  0  0
   22.7960  -17.3510   26.8760   C 0  0  0  0  0  0  0  0  0  0  0  0
   22.4840  -17.7740   30.4430   C 0  0  0  0  0  0  0  0  0  0  0  0
   22.4810  -19.8160   32.3690   C 0  0  0  0  0  0  0  0  0  0  0  0
   24.6590  -17.3910   28.6540   C 0  0  0  0  0  0  0  0  0  0  0  0
   24.6840  -18.4220   29.7430   N 0  0  0  0  0  0  0  0  0  0  0  0
   24.3090  -18.9590   26.6140   O 0  0  0  0  0  0  0  0  0  0  0  0
   24.8520  -20.5460   31.6660   C 0  0  0  0  0  0  0  0  0  0  0  0
   23.9030  -17.8830   27.4040   C 0  0  0  0  0  0  0  0  0  0  0  0
   23.6030  -18.6000   30.5460   C 0  0  0  0  0  0  0  0  0  0  0  0
   23.6040  -19.6140   31.5250   C 0  0  0  0  0  0  0  0  0  0  0  0
  1 13  2  0  0  0  0
 13  2  1  0  0  0  0
  8  3  2  0  0  0  0
  3  4  1  0  0  0  0
  9  4  2  0  0  0  0
  5  6  2  0  0  0  0
  5  7  1  0  0  0  0
  6 12  1  0  0  0  0
  7 14  2  0  0  0  0
 15  8  1  0  0  0  0
 16  9  1  0  0  0  0
 14 10  1  0  0  0  0
 10 11  1  0  0  0  0
 11 15  1  0  0  0  0
 12 14  1  0  0  0  0
 13 16  1  0  0  0  0
 15 16  2  0  0  0  0
M  END
>  <InstanceId>
3RF5_FUZ_A_202

>  <ChemCompId>
FUZ

>  <PdbId>
3RF5

>  <ChainId>
A

>  <ResidueNumber>
202

>  <InsertionCode>


>  <Model>
1

>  <AltIds>


>  <MissingHeavyAtoms>
0

>  <ObservedFormula>
C12 N O3

>  <Name>
2-[(furan-2-ylmethyl)amino]benzoic acid

>  <SystematicName>
2-(furan-2-ylmethylamino)benzoic acid

>  <Synonyms>


>  <Type>
NON-POLYMER

>  <Formula>
C12 H11 N O3

>  <MolecularWeight>
217.221

>  <ModifiedDate>
2011-10-07

>  <Parent>


>  <OneLetterCode>


>  <SubcomponentList>


>  <AmbiguousFlag>
N

>  <InChI>
InChI=1S/C12H11NO3/c14-12(15)10-5-1-2-6-11(10)13-8-9-4-3-7-16-9/h1-7,13H,8H2,(H,14,15)

>  <InChIKey>
CKOPWCOBXHDAOZ-UHFFFAOYSA-N

>  <SMILES>
c1ccc(c(c1)C(=O)O)NCc2ccco2

$$$$
