2I4Z_DRH_A_999
  RCSB PDB08012017113D
Coordinates from PDB:2I4Z:A:999 Model:1 without hydrogens
 33 35  0  0  0  0            999 V2000
   20.3000   20.6650   17.3190   C 0  0  0  0  0  0  0  0  0  0  0  0
   19.4260   19.9370   18.3420   C 0  0  0  0  0  0  0  0  0  0  0  0
   20.2080   18.8450   19.0780   C 0  0  0  0  0  0  0  0  0  0  0  0
   19.3130   18.1370   20.1000   C 0  0  0  0  0  0  0  0  0  0  0  0
   19.8810   17.5570   21.0510   O 0  0  0  0  0  0  0  0  0  0  0  0
   18.0780   18.1780   19.9110   O 0  0  0  0  0  0  0  0  0  0  0  0
   21.3870   19.4650   19.8330   C 0  0  0  0  0  0  0  0  0  0  0  0
   20.7490   17.9110   18.1350   O 0  0  0  0  0  0  0  0  0  0  0  0
   19.9920   17.1370   17.3030   C 0  0  0  0  0  0  0  0  0  0  0  0
   18.7520   16.6200   17.6720   C 0  0  0  0  0  0  0  0  0  0  0  0
   18.0570   15.7740   16.8100   C 0  0  0  0  0  0  0  0  0  0  0  0
   20.5230   16.8090   16.0590   C 0  0  0  0  0  0  0  0  0  0  0  0
   19.8300   15.9640   15.1970   C 0  0  0  0  0  0  0  0  0  0  0  0
   18.5960   15.4410   15.5700   C 0  0  0  0  0  0  0  0  0  0  0  0
   17.8990   14.4570   14.6240   C 0  0  0  0  0  0  0  0  0  0  0  0
   16.3690   14.5010   14.6760   C 0  0  0  0  0  0  0  0  0  0  0  0
   15.7340   15.2790   13.5980   N 0  0  0  0  0  0  0  0  0  0  0  0
   14.2710   15.2320   13.4370   C 0  0  0  0  0  0  0  0  0  0  0  0
   13.5840   14.5440   14.6180   C 0  0  0  0  0  0  0  0  0  0  0  0
   12.0750   14.4180   14.4020   C 0  0  0  0  0  0  0  0  0  0  0  0
   11.4290   13.8830   15.6810   C 0  0  0  0  0  0  0  0  0  0  0  0
    9.9140   13.7210   15.5420   C 0  0  0  0  0  0  0  0  0  0  0  0
    9.2820   13.3410   16.8830   C 0  0  0  0  0  0  0  0  0  0  0  0
    9.8490   12.0280   17.4290   C 0  0  0  0  0  0  0  0  0  0  0  0
   16.4220   15.8790   12.6270   C 0  0  0  0  0  0  0  0  0  0  0  0
   17.7700   15.7870   12.4210   O 0  0  0  0  0  0  0  0  0  0  0  0
   18.0220   16.4680   11.2650   C 0  0  0  0  0  0  0  0  0  0  0  0
   19.1880   16.6990   10.5420   C 0  0  0  0  0  0  0  0  0  0  0  0
   19.1370   17.4280    9.3570   C 0  0  0  0  0  0  0  0  0  0  0  0
   17.9210   17.9260    8.8990   C 0  0  0  0  0  0  0  0  0  0  0  0
   16.7540   17.6960    9.6210   C 0  0  0  0  0  0  0  0  0  0  0  0
   16.8070   16.9640   10.8030   C 0  0  0  0  0  0  0  0  0  0  0  0
   15.8580   16.5890   11.6550   N 0  0  0  0  0  0  0  0  0  0  0  0
  1  2  1  0  0  0  0
  2  3  1  0  0  0  0
  3  8  1  0  0  0  0
  3  7  1  0  0  0  0
  3  4  1  0  0  0  0
  4  6  2  0  0  0  0
  4  5  1  0  0  0  0
  8  9  1  0  0  0  0
  9 12  2  0  0  0  0
  9 10  1  0  0  0  0
 10 11  2  0  0  0  0
 11 14  1  0  0  0  0
 12 13  1  0  0  0  0
 13 14  2  0  0  0  0
 14 15  1  0  0  0  0
 15 16  1  0  0  0  0
 16 17  1  0  0  0  0
 17 25  1  0  0  0  0
 17 18  1  0  0  0  0
 18 19  1  0  0  0  0
 19 20  1  0  0  0  0
 20 21  1  0  0  0  0
 21 22  1  0  0  0  0
 22 23  1  0  0  0  0
 23 24  1  0  0  0  0
 25 33  2  0  0  0  0
 25 26  1  0  0  0  0
 26 27  1  0  0  0  0
 27 28  2  0  0  0  0
 27 32  1  0  0  0  0
 28 29  1  0  0  0  0
 29 30  2  0  0  0  0
 30 31  1  0  0  0  0
 31 32  2  0  0  0  0
 32 33  1  0  0  0  0
M  END
>  <InstanceId>
2I4Z_DRH_A_999

>  <ChemCompId>
DRH

>  <PdbId>
2I4Z

>  <ChainId>
A

>  <ResidueNumber>
999

>  <InsertionCode>


>  <Model>
1

>  <AltIds>


>  <MissingHeavyAtoms>
0

>  <ObservedFormula>
C27 N2 O4

>  <Name>
(2S)-2-(4-{2-[1,3-BENZOXAZOL-2-YL(HEPTYL)AMINO]ETHYL}PHENOXY)-2-METHYLBUTANOIC ACID

>  <SystematicName>
(2S)-2-[4-[2-(1,3-benzoxazol-2-yl-heptyl-amino)ethyl]phenoxy]-2-methyl-butanoic acid

>  <Synonyms>


>  <Type>
NON-POLYMER

>  <Formula>
C27 H36 N2 O4

>  <MolecularWeight>
452.586

>  <ModifiedDate>
2011-06-04

>  <Parent>


>  <OneLetterCode>


>  <SubcomponentList>


>  <AmbiguousFlag>


>  <InChI>
InChI=1S/C27H36N2O4/c1-4-6-7-8-11-19-29(26-28-23-12-9-10-13-24(23)32-26)20-18-21-14-16-22(17-15-21)33-27(3,5-2)25(30)31/h9-10,12-17H,4-8,11,18-20H2,1-3H3,(H,30,31)/t27-/m0/s1

>  <InChIKey>
QPKIEBNVIOELIR-MHZLTWQESA-N

>  <SMILES>
CCCCCCC[N@@](CCc1ccc(cc1)O[C@@](C)(CC)C(=O)O)c2nc3ccccc3o2

$$$$
