6EIR_B6H_A_501
  RCSB PDB08022004313D
Coordinates from PDB:6EIR:A:501 Model:1 without hydrogens
 35 38  0  0  0  0            999 V2000
   -9.6770  110.7320  277.2590   C 0  0  0  0  0  0  0  0  0  0  0  0
  -10.3120  112.0950  277.0870   C 0  0  0  0  0  0  0  0  0  0  0  0
  -11.0240  112.5090  278.3250   N 0  0  0  0  0  0  0  0  0  0  0  0
  -11.5660  113.8910  278.2300   C 0  0  0  0  0  0  0  0  0  0  0  0
  -12.1220  111.5890  278.6500   C 0  0  0  0  0  0  0  0  0  0  0  0
  -11.4510  110.3220  279.1420   C 0  0  0  0  0  0  0  0  0  0  0  0
  -10.4580  109.8180  278.1560   N 0  0  0  0  0  0  0  0  0  0  0  0
  -10.1990  108.4970  278.1040   C 0  0  0  0  0  0  0  0  0  0  0  0
  -11.2020  107.5820  277.7640   C 0  0  0  0  0  0  0  0  0  0  0  0
  -10.9140  106.2140  277.7160   C 0  0  0  0  0  0  0  0  0  0  0  0
  -11.8580  105.2800  277.3960   O 0  0  0  0  0  0  0  0  0  0  0  0
  -12.9520  105.2580  278.3280   C 0  0  0  0  0  0  0  0  0  0  0  0
   -8.9090  108.0340  278.3840   C 0  0  0  0  0  0  0  0  0  0  0  0
   -8.6210  106.6710  278.3330   C 0  0  0  0  0  0  0  0  0  0  0  0
   -9.6210  105.7550  277.9880   C 0  0  0  0  0  0  0  0  0  0  0  0
   -9.4090  104.4290  277.9300   N 0  0  0  0  0  0  0  0  0  0  0  0
   -8.4950  103.9320  277.0800   C 0  0  0  0  0  0  0  0  0  0  0  0
   -7.5970  104.7450  275.9630   S 0  0  0  0  0  0  0  0  0  0  0  0
   -8.1660  102.6390  277.0150   N 0  0  0  0  0  0  0  0  0  0  0  0
   -7.2230  102.3520  276.0930   C 0  0  0  0  0  0  0  0  0  0  0  0
   -6.8260  101.0880  275.9520   N 0  0  0  0  0  0  0  0  0  0  0  0
   -6.7830  103.4210  275.4010   C 0  0  0  0  0  0  0  0  0  0  0  0
   -5.8450  103.3850  274.4300   C 0  0  0  0  0  0  0  0  0  0  0  0
   -5.2730  102.3310  274.1450   O 0  0  0  0  0  0  0  0  0  0  0  0
   -5.5020  104.5580  273.7390   C 0  0  0  0  0  0  0  0  0  0  0  0
   -4.1640  104.9620  273.7100   C 0  0  0  0  0  0  0  0  0  0  0  0
   -3.7820  106.1150  273.0170   C 0  0  0  0  0  0  0  0  0  0  0  0
   -6.4450  105.3210  273.0380   C 0  0  0  0  0  0  0  0  0  0  0  0
   -6.0650  106.4750  272.3500   C 0  0  0  0  0  0  0  0  0  0  0  0
   -4.7290  106.8850  272.3410   C 0  0  0  0  0  0  0  0  0  0  0  0
   -4.3330  107.9770  271.6690   N 0  0  0  0  0  0  0  0  0  0  0  0
   -4.8490  109.1960  271.9560   C 0  0  0  0  0  0  0  0  0  0  0  0
   -5.6950  109.4300  272.8230   O 0  0  0  0  0  0  0  0  0  0  0  0
   -4.2920  110.3340  271.0870   C 0  0  0  0  0  0  0  0  0  0  0  0
   -4.7730  111.7750  271.2870   C 0  0  0  0  0  0  0  0  0  0  0  0
 34 35  1  0  0  0  0
 34 32  1  0  0  0  0
 31 32  1  0  0  0  0
 31 30  1  0  0  0  0
 32 33  2  0  0  0  0
 30 29  2  0  0  0  0
 30 27  1  0  0  0  0
 29 28  1  0  0  0  0
 27 26  2  0  0  0  0
 28 25  2  0  0  0  0
 26 25  1  0  0  0  0
 25 23  1  0  0  0  0
 24 23  2  0  0  0  0
 23 22  1  0  0  0  0
 22 18  1  0  0  0  0
 22 20  2  0  0  0  0
 21 20  1  0  0  0  0
 18 17  1  0  0  0  0
 20 19  1  0  0  0  0
 19 17  2  0  0  0  0
 17 16  1  0  0  0  0
  2  1  1  0  0  0  0
  2  3  1  0  0  0  0
  1  7  1  0  0  0  0
 11 10  1  0  0  0  0
 11 12  1  0  0  0  0
 10  9  2  0  0  0  0
 10 15  1  0  0  0  0
  9  8  1  0  0  0  0
 16 15  1  0  0  0  0
 15 14  2  0  0  0  0
  8  7  1  0  0  0  0
  8 13  2  0  0  0  0
  7  6  1  0  0  0  0
  4  3  1  0  0  0  0
  3  5  1  0  0  0  0
 14 13  1  0  0  0  0
  5  6  1  0  0  0  0
M  END
>  <InstanceId>
6EIR_B6H_A_501

>  <ChemCompId>
B6H

>  <PdbId>
6EIR

>  <ChainId>
A

>  <ResidueNumber>
501

>  <InsertionCode>


>  <Model>
1

>  <AltIds>


>  <MissingHeavyAtoms>
0

>  <ObservedFormula>
C25 N6 O3 S

>  <Name>
~{N}-[4-[[4-azanyl-2-[[2-methoxy-4-(4-methylpiperazin-1-yl)phenyl]amino]-1,3-thiazol-5-yl]carbonyl]phenyl]propanamide

>  <SystematicName>
~{N}-[4-[[4-azanyl-2-[[2-methoxy-4-(4-methylpiperazin-1-yl)phenyl]amino]-1,3-thiazol-5-yl]carbonyl]phenyl]propanamide

>  <Synonyms>


>  <Type>
NON-POLYMER

>  <Formula>
C25 H30 N6 O3 S

>  <MolecularWeight>
494.609

>  <ModifiedDate>
2018-08-24

>  <Parent>


>  <OneLetterCode>


>  <SubcomponentList>


>  <AmbiguousFlag>
N

>  <InChI>
InChI=1S/C25H30N6O3S/c1-4-21(32)27-17-7-5-16(6-8-17)22(33)23-24(26)29-25(35-23)28-19-10-9-18(15-20(19)34-3)31-13-11-30(2)12-14-31/h5-10,15H,4,11-14,26H2,1-3H3,(H,27,32)(H,28,29)

>  <InChIKey>
SSVRRCACHPATAI-UHFFFAOYSA-N

>  <SMILES>
CCC(=O)Nc1ccc(cc1)C(=O)c2c(nc(s2)Nc3ccc(cc3OC)N4CCN(CC4)C)N

$$$$
