1GJC_130_B_251
  RCSB PDB08012014593D
Coordinates from PDB:1GJC:B:251 Model:1 without hydrogens
 25 28  0  0  0  0            999 V2000
    8.7610    1.3670   24.6990   C 0  0  0  0  0  0  0  0  0  0  0  0
    9.5260    1.2400   23.5100   C 0  0  0  0  0  0  0  0  0  0  0  0
   10.1020    2.3400   22.8490   C 0  0  0  0  0  0  0  0  0  0  0  0
    9.8850    3.5570   23.4180   C 0  0  0  0  0  0  0  0  0  0  0  0
    9.1700    3.7280   24.5370   C 0  0  0  0  0  0  0  0  0  0  0  0
    8.5860    2.6760   25.2210   C 0  0  0  0  0  0  0  0  0  0  0  0
    8.2110    0.2360   25.3310   C 0  0  0  0  0  0  0  0  0  0  0  0
    7.7860    0.3080   26.5690   N 0  0  0  0  0  0  0  0  0  0  0  0
    8.1250   -0.8970   24.6800   N 0  0  0  0  0  0  0  0  0  0  0  0
   10.2680    4.7330   23.0440   N 0  0  0  0  0  0  0  0  0  0  0  0
    9.0780    5.0000   24.9000   N 0  0  0  0  0  0  0  0  0  0  0  0
    9.7860    5.5600   23.9200   C 0  0  0  0  0  0  0  0  0  0  0  0
   10.0470    6.9550   23.8570   C 0  0  0  0  0  0  0  0  0  0  0  0
    9.7040    7.8070   24.9150   C 0  0  0  0  0  0  0  0  0  0  0  0
    9.9550    9.1710   24.8730   C 0  0  0  0  0  0  0  0  0  0  0  0
   10.5550    9.7220   23.7660   C 0  0  0  0  0  0  0  0  0  0  0  0
   10.9270    8.9440   22.6670   C 0  0  0  0  0  0  0  0  0  0  0  0
   10.6660    7.5610   22.7300   C 0  0  0  0  0  0  0  0  0  0  0  0
   11.0360    6.7970   21.6420   O 0  0  0  0  0  0  0  0  0  0  0  0
   11.5400    9.5710   21.5850   C 0  0  0  0  0  0  0  0  0  0  0  0
   12.7980    9.1700   21.1430   C 0  0  0  0  0  0  0  0  0  0  0  0
   13.4460    9.8080   20.0970   C 0  0  0  0  0  0  0  0  0  0  0  0
   12.8360   10.8760   19.4600   C 0  0  0  0  0  0  0  0  0  0  0  0
   11.5800   11.2970   19.8720   C 0  0  0  0  0  0  0  0  0  0  0  0
   10.9360   10.6510   20.9230   C 0  0  0  0  0  0  0  0  0  0  0  0
  1  2  1  0  0  0  0
  1  6  2  0  0  0  0
  1  7  1  0  0  0  0
  2  3  2  0  0  0  0
  3  4  1  0  0  0  0
  4  5  2  0  0  0  0
  4 10  1  0  0  0  0
  5  6  1  0  0  0  0
  5 11  1  0  0  0  0
  7  8  1  0  0  0  0
  7  9  2  0  0  0  0
 10 12  1  0  0  0  0
 11 12  2  0  0  0  0
 12 13  1  0  0  0  0
 13 14  2  0  0  0  0
 13 18  1  0  0  0  0
 14 15  1  0  0  0  0
 15 16  2  0  0  0  0
 16 17  1  0  0  0  0
 17 18  2  0  0  0  0
 17 20  1  0  0  0  0
 18 19  1  0  0  0  0
 20 21  2  0  0  0  0
 20 25  1  0  0  0  0
 21 22  1  0  0  0  0
 22 23  2  0  0  0  0
 23 24  1  0  0  0  0
 24 25  2  0  0  0  0
M  END
>  <InstanceId>
1GJC_130_B_251

>  <ChemCompId>
130

>  <PdbId>
1GJC

>  <ChainId>
B

>  <ResidueNumber>
251

>  <InsertionCode>


>  <Model>
1

>  <AltIds>


>  <MissingHeavyAtoms>
0

>  <ObservedFormula>
C20 N4 O

>  <Name>
2-(2-HYDROXY-BIPHENYL)-1H-BENZOIMIDAZOLE-5-CARBOXAMIDINE

>  <SystematicName>
2-(2-hydroxy-3-phenyl-phenyl)-1H-benzimidazole-5-carboximidamide

>  <Synonyms>


>  <Type>
NON-POLYMER

>  <Formula>
C20 H16 N4 O

>  <MolecularWeight>
328.367

>  <ModifiedDate>
2011-06-04

>  <Parent>


>  <OneLetterCode>


>  <SubcomponentList>


>  <AmbiguousFlag>
N

>  <InChI>
InChI=1S/C20H16N4O/c21-19(22)13-9-10-16-17(11-13)24-20(23-16)15-8-4-7-14(18(15)25)12-5-2-1-3-6-12/h1-11,25H,(H3,21,22)(H,23,24)

>  <InChIKey>
LMGQGPVCSYOMNS-UHFFFAOYSA-N

>  <SMILES>
[H]/N=C(\c1ccc2c(c1)nc([nH]2)c3cccc(c3O)c4ccccc4)/N

$$$$
