6HAI_FWW_A_302
  RCSB PDB08022004573D
Coordinates from PDB:6HAI:A:302 Model:1 without hydrogens
 62 67  0  0  0  0            999 V2000
  -12.2810   88.6130   55.5690   C 0  0  0  0  0  0  0  0  0  0  0  0
  -10.0520   87.5100   55.7430   C 0  0  0  0  0  0  0  0  0  0  0  0
   -8.8970   86.7550   57.8360   C 0  0  0  0  0  0  0  0  0  0  0  0
   -7.9490   87.9590   57.6970   C 0  0  0  0  0  0  0  0  0  0  0  0
   -4.4210   88.3130   57.5620   C 0  0  0  0  0  0  0  0  0  0  0  0
   -3.4930   90.3580   56.5930   C 0  0  0  0  0  0  0  0  0  0  0  0
  -21.4000   90.8550   49.4760   C 0  0  0  0  0  0  0  0  0  0  0  0
  -20.7900   91.7690   50.3230   C 0  0  0  0  0  0  0  0  0  0  0  0
  -19.5620   91.4650   50.9000   C 0  0  0  0  0  0  0  0  0  0  0  0
  -18.8740   90.2650   50.6670   C 0  0  0  0  0  0  0  0  0  0  0  0
  -17.5560   89.9570   51.3150   C 0  0  0  0  0  0  0  0  0  0  0  0
  -17.3090   89.9040   52.6320   C 0  0  0  0  0  0  0  0  0  0  0  0
  -18.4550   90.1340   53.4690   C 0  0  0  0  0  0  0  0  0  0  0  0
  -16.0310   89.5820   53.3740   C 0  0  0  0  0  0  0  0  0  0  0  0
  -13.6740   88.5890   53.5600   C 0  0  0  0  0  0  0  0  0  0  0  0
  -13.4400   88.9560   54.8850   C 0  0  0  0  0  0  0  0  0  0  0  0
  -11.2610   87.8660   55.0050   C 0  0  0  0  0  0  0  0  0  0  0  0
   -8.0610   85.6340   57.2910   C 0  0  0  0  0  0  0  0  0  0  0  0
   -6.7400   86.2450   56.9120   C 0  0  0  0  0  0  0  0  0  0  0  0
   -5.6560   88.5080   56.9560   C 0  0  0  0  0  0  0  0  0  0  0  0
   -3.3900   89.1950   57.3790   C 0  0  0  0  0  0  0  0  0  0  0  0
   -2.3360   91.2380   56.4850   C 0  0  0  0  0  0  0  0  0  0  0  0
    0.1610   91.4470   56.5070   C 0  0  0  0  0  0  0  0  0  0  0  0
    0.2250   92.7930   56.9170   C 0  0  0  0  0  0  0  0  0  0  0  0
    1.3970   93.5330   56.9250   C 0  0  0  0  0  0  0  0  0  0  0  0
    2.6190   93.0160   56.5450   C 0  0  0  0  0  0  0  0  0  0  0  0
    3.9030   93.7840   56.5500   C 0  0  0  0  0  0  0  0  0  0  0  0
    6.3990   93.8260   56.0090   C 0  0  0  0  0  0  0  0  0  0  0  0
    6.6820   95.1310   56.4350   C 0  0  0  0  0  0  0  0  0  0  0  0
    7.9700   95.6750   56.3790   C 0  0  0  0  0  0  0  0  0  0  0  0
    9.0620   94.9510   55.9050   C 0  0  0  0  0  0  0  0  0  0  0  0
   10.4860   95.5450   55.8430   C 0  0  0  0  0  0  0  0  0  0  0  0
    8.7900   93.6500   55.4850   C 0  0  0  0  0  0  0  0  0  0  0  0
    7.5050   93.0940   55.5330   C 0  0  0  0  0  0  0  0  0  0  0  0
    7.0140   90.8690   56.1570   C 0  0  0  0  0  0  0  0  0  0  0  0
    2.5590   91.6500   56.1510   C 0  0  0  0  0  0  0  0  0  0  0  0
    1.3790   90.8930   56.1370   C 0  0  0  0  0  0  0  0  0  0  0  0
    1.5330   88.5570   56.8210   C 0  0  0  0  0  0  0  0  0  0  0  0
   -4.7230   90.5490   56.0110   C 0  0  0  0  0  0  0  0  0  0  0  0
   -5.7780   89.6600   56.1810   C 0  0  0  0  0  0  0  0  0  0  0  0
  -11.4840   87.4780   53.6790   C 0  0  0  0  0  0  0  0  0  0  0  0
  -12.6420   87.8130   52.9860   C 0  0  0  0  0  0  0  0  0  0  0  0
  -19.5290   89.3680   49.8170   C 0  0  0  0  0  0  0  0  0  0  0  0
  -20.7610   89.6420   49.2230   C 0  0  0  0  0  0  0  0  0  0  0  0
  -14.8940   88.9360   52.8710   N 0  0  0  0  0  0  0  0  0  0  0  0
  -10.0720   87.1120   57.0870   N 0  0  0  0  0  0  0  0  0  0  0  0
   -6.7210   87.6410   57.1620   N 0  0  0  0  0  0  0  0  0  0  0  0
   -1.0440   90.7650   56.5420   N 0  0  0  0  0  0  0  0  0  0  0  0
    5.0850   93.2610   56.0720   N 0  0  0  0  0  0  0  0  0  0  0  0
  -22.6060   91.1310   48.8980   O 0  0  0  0  0  0  0  0  0  0  0  0
   -5.7920   85.6180   56.4480   O 0  0  0  0  0  0  0  0  0  0  0  0
   10.7840   96.4000   56.7030   O 0  0  0  0  0  0  0  0  0  0  0  0
   11.2230   95.1100   54.9420   O 0  0  0  0  0  0  0  0  0  0  0  0
    9.8010   92.8680   55.0020   O 0  0  0  0  0  0  0  0  0  0  0  0
    7.2560   91.8070   55.1060   O 0  0  0  0  0  0  0  0  0  0  0  0
    3.8690   94.9270   57.0270   O 0  0  0  0  0  0  0  0  0  0  0  0
    3.6920   90.9980   55.7510   O 0  0  0  0  0  0  0  0  0  0  0  0
    1.3690   89.5760   55.7370   O 0  0  0  0  0  0  0  0  0  0  0  0
   -2.5320   92.4380   56.4080   O 0  0  0  0  0  0  0  0  0  0  0  0
   -8.2750   89.1080   57.9880   O 0  0  0  0  0  0  0  0  0  0  0  0
   -8.9670   87.5540   55.1610   O 0  0  0  0  0  0  0  0  0  0  0  0
  -16.0110   89.8920   54.5540   O 0  0  0  0  0  0  0  0  0  0  0  0
 50  7  1  0  0  0  0
 44  7  2  0  0  0  0
 44 43  1  0  0  0  0
  7  8  1  0  0  0  0
 43 10  2  0  0  0  0
  8  9  2  0  0  0  0
 10  9  1  0  0  0  0
 10 11  1  0  0  0  0
 11 12  2  0  0  0  0
 12 14  1  0  0  0  0
 12 13  1  0  0  0  0
 45 14  1  0  0  0  0
 45 15  1  0  0  0  0
 42 15  2  0  0  0  0
 42 41  1  0  0  0  0
 14 62  2  0  0  0  0
 15 16  1  0  0  0  0
 41 17  2  0  0  0  0
 16  1  2  0  0  0  0
 53 32  2  0  0  0  0
 54 33  1  0  0  0  0
 17  1  1  0  0  0  0
 17  2  1  0  0  0  0
 55 34  1  0  0  0  0
 55 35  1  0  0  0  0
 61  2  2  0  0  0  0
 33 34  2  0  0  0  0
 33 31  1  0  0  0  0
 34 28  1  0  0  0  0
 58 37  1  0  0  0  0
 58 38  1  0  0  0  0
  2 46  1  0  0  0  0
 57 36  1  0  0  0  0
 32 31  1  0  0  0  0
 32 52  1  0  0  0  0
 31 30  2  0  0  0  0
 28 49  1  0  0  0  0
 28 29  2  0  0  0  0
 39 40  2  0  0  0  0
 39  6  1  0  0  0  0
 49 27  1  0  0  0  0
 37 36  2  0  0  0  0
 37 23  1  0  0  0  0
 36 26  1  0  0  0  0
 40 20  1  0  0  0  0
 30 29  1  0  0  0  0
 59 22  2  0  0  0  0
 51 19  2  0  0  0  0
 22 48  1  0  0  0  0
 22  6  1  0  0  0  0
 23 48  1  0  0  0  0
 23 24  2  0  0  0  0
 26 27  1  0  0  0  0
 26 25  2  0  0  0  0
 27 56  2  0  0  0  0
  6 21  2  0  0  0  0
 19 47  1  0  0  0  0
 19 18  1  0  0  0  0
 24 25  1  0  0  0  0
 20 47  1  0  0  0  0
 20  5  2  0  0  0  0
 46  3  1  0  0  0  0
 47  4  1  0  0  0  0
 18  3  1  0  0  0  0
 21  5  1  0  0  0  0
  4  3  1  0  0  0  0
  4 60  2  0  0  0  0
M  END
>  <InstanceId>
6HAI_FWW_A_302

>  <ChemCompId>
FWW

>  <PdbId>
6HAI

>  <ChainId>
A

>  <ResidueNumber>
302

>  <InsertionCode>


>  <Model>
1

>  <AltIds>


>  <MissingHeavyAtoms>
0

>  <ObservedFormula>
C44 N5 O13

>  <Name>
4-[[4-[[4-[(3~{S})-3-[[4-[[(~{E})-3-(4-hydroxyphenyl)-2-methyl-prop-2-enoyl]amino]phenyl]carbonylamino]-2,5-bis(oxidanylidene)pyrrolidin-1-yl]phenyl]carbonylamino]-3-methoxy-2-oxidanyl-phenyl]carbonylamino]-3-methoxy-2-oxidanyl-benzoic acid

>  <SystematicName>
4-[[4-[[4-[(3~{S})-3-[[4-[[(~{E})-3-(4-hydroxyphenyl)-2-methyl-prop-2-enoyl]amino]phenyl]carbonylamino]-2,5-bis(oxidanylidene)pyrrolidin-1-yl]phenyl]carbonylamino]-3-methoxy-2-oxidanyl-phenyl]carbonylamino]-3-methoxy-2-oxidanyl-benzoic acid

>  <Synonyms>


>  <Type>
NON-POLYMER

>  <Formula>
C44 H37 N5 O13

>  <MolecularWeight>
843.79

>  <ModifiedDate>
2018-11-16

>  <Parent>


>  <OneLetterCode>


>  <SubcomponentList>


>  <AmbiguousFlag>
N

>  <InChI>
InChI=1S/C44H37N5O13/c1-22(20-23-4-14-28(50)15-5-23)39(54)45-26-10-6-24(7-11-26)41(56)48-33-21-34(51)49(43(33)58)27-12-8-25(9-13-27)40(55)46-31-18-16-29(35(52)37(31)61-2)42(57)47-32-19-17-30(44(59)60)36(53)38(32)62-3/h4-20,33,50,52-53H,21H2,1-3H3,(H,45,54)(H,46,55)(H,47,57)(H,48,56)(H,59,60)/b22-20+/t33-/m0/s1

>  <InChIKey>
XOWPHBSEUBUKBU-QCKJEFJWSA-N

>  <SMILES>
C/C(=C\c1ccc(cc1)O)/C(=O)Nc2ccc(cc2)C(=O)N[C@H]3CC(=O)N(C3=O)c4ccc(cc4)C(=O)Nc5ccc(c(c5OC)O)C(=O)Nc6ccc(c(c6OC)O)C(=O)O

$$$$
