1TNG_AMC_A_900
  RCSB PDB08012016013D
Coordinates from PDB:1TNG:A:900 Model:1 without hydrogens
  8  8  0  0  0  0            999 V2000
   29.4710   15.0640   16.9590   C 0  0  0  0  0  0  0  0  0  0  0  0
   29.6470   13.5710   16.9460   C 0  0  0  0  0  0  0  0  0  0  0  0
   29.8870   13.0470   18.3560   C 0  0  0  0  0  0  0  0  0  0  0  0
   28.6840   13.3890   19.2590   C 0  0  0  0  0  0  0  0  0  0  0  0
   28.3610   14.8940   19.2410   C 0  0  0  0  0  0  0  0  0  0  0  0
   28.2560   15.3640   17.7860   C 0  0  0  0  0  0  0  0  0  0  0  0
   29.2860   15.5890   15.5510   C 0  0  0  0  0  0  0  0  0  0  0  0
   30.5350   15.6930   14.8290   N 0  3  0  0  0  0  0  0  0  0  0  0
  1  2  1  0  0  0  0
  1  6  1  0  0  0  0
  1  7  1  0  0  0  0
  2  3  1  0  0  0  0
  3  4  1  0  0  0  0
  4  5  1  0  0  0  0
  5  6  1  0  0  0  0
  7  8  1  0  0  0  0
M  CHG  1   8   1
M  END
>  <InstanceId>
1TNG_AMC_A_900

>  <ChemCompId>
AMC

>  <PdbId>
1TNG

>  <ChainId>
A

>  <ResidueNumber>
900

>  <InsertionCode>


>  <Model>
1

>  <AltIds>


>  <MissingHeavyAtoms>
0

>  <ObservedFormula>
C7 N

>  <Name>
AMINOMETHYLCYCLOHEXANE

>  <SystematicName>
cyclohexylmethylazanium

>  <Synonyms>


>  <Type>
NON-POLYMER

>  <Formula>
C7 H16 N

>  <MolecularWeight>
114.209

>  <ModifiedDate>
2011-06-04

>  <Parent>


>  <OneLetterCode>


>  <SubcomponentList>


>  <AmbiguousFlag>
N

>  <InChI>
InChI=1S/C7H15N/c8-6-7-4-2-1-3-5-7/h7H,1-6,8H2/p+1

>  <InChIKey>
AVKNGPAMCBSNSO-UHFFFAOYSA-O

>  <SMILES>
C1CCC(CC1)C[NH3+]

$$$$
