6EL5_PU1_A_301
  RCSB PDB08022004323D
Coordinates from PDB:6EL5:A:301 Model:1 without hydrogens
 30 32  0  0  0  0            999 V2000
    2.2390   31.7810   24.8120  Cl 0  0  0  0  0  0  0  0  0  0  0  0
    3.7780   32.5970   24.8890   C 0  0  0  0  0  0  0  0  0  0  0  0
    4.8990   31.9510   24.3320   C 0  0  0  0  0  0  0  0  0  0  0  0
    4.7380   30.8560   23.5230   O 0  0  0  0  0  0  0  0  0  0  0  0
    4.8740   29.5380   24.0000   C 0  0  0  0  0  0  0  0  0  0  0  0
    6.1510   32.5790   24.3590   C 0  0  0  0  0  0  0  0  0  0  0  0
    7.2630   31.9610   23.8480   O 0  0  0  0  0  0  0  0  0  0  0  0
    7.4940   31.8830   22.4340   C 0  0  0  0  0  0  0  0  0  0  0  0
    6.3110   33.7850   25.0450   C 0  0  0  0  0  0  0  0  0  0  0  0
    7.5700   34.3150   25.1280   O 0  0  0  0  0  0  0  0  0  0  0  0
    7.7960   35.4490   25.9820   C 0  0  0  0  0  0  0  0  0  0  0  0
    5.1960   34.4130   25.6190   C 0  0  0  0  0  0  0  0  0  0  0  0
    3.9340   33.8310   25.5540   C 0  0  0  0  0  0  0  0  0  0  0  0
    2.8050   34.5730   26.2490   C 0  0  0  0  0  0  0  0  0  0  0  0
    1.6680   34.8760   25.2980   C 0  0  0  0  0  0  0  0  0  0  0  0
    0.4500   34.4990   25.5270   N 0  0  0  0  0  0  0  0  0  0  0  0
   -0.3260   34.8510   24.4940   C 0  0  0  0  0  0  0  0  0  0  0  0
   -1.6800   34.6860   24.1920   C 0  0  0  0  0  0  0  0  0  0  0  0
   -2.5320   34.1060   25.1110   N 0  0  0  0  0  0  0  0  0  0  0  0
    0.4980   35.5240   23.5860   C 0  0  0  0  0  0  0  0  0  0  0  0
   -0.0110   35.9710   22.4590   N 0  0  0  0  0  0  0  0  0  0  0  0
   -1.2610   35.7390   22.1700   C 0  0  0  0  0  0  0  0  0  0  0  0
   -2.1110   35.1440   23.0100   N 0  0  0  0  0  0  0  0  0  0  0  0
    1.7500   35.5520   24.1150   N 0  0  0  0  0  0  0  0  0  0  0  0
    2.9140   36.2090   23.4860   C 0  0  0  0  0  0  0  0  0  0  0  0
    2.8750   37.7330   23.6810   C 0  0  0  0  0  0  0  0  0  0  0  0
    2.9620   38.1330   25.1540   C 0  0  0  0  0  0  0  0  0  0  0  0
    4.3350   38.0650   25.7120   C 0  0  0  0  0  0  0  0  0  0  0  0
    5.4100   38.0330   26.2000   C 0  0  0  0  0  0  0  0  0  0  0  0
   -1.6560   36.1950   20.9810   F 0  0  0  0  0  0  0  0  0  0  0  0
  1  2  1  0  0  0  0
  2  3  2  0  0  0  0
  2 13  1  0  0  0  0
  3  4  1  0  0  0  0
  3  6  1  0  0  0  0
  4  5  1  0  0  0  0
  6  7  1  0  0  0  0
  6  9  2  0  0  0  0
  7  8  1  0  0  0  0
  9 10  1  0  0  0  0
  9 12  1  0  0  0  0
 10 11  1  0  0  0  0
 12 13  2  0  0  0  0
 13 14  1  0  0  0  0
 14 15  1  0  0  0  0
 15 16  2  0  0  0  0
 15 24  1  0  0  0  0
 16 17  1  0  0  0  0
 17 18  2  0  0  0  0
 17 20  1  0  0  0  0
 18 19  1  0  0  0  0
 18 23  1  0  0  0  0
 20 21  2  0  0  0  0
 20 24  1  0  0  0  0
 21 22  1  0  0  0  0
 22 23  2  0  0  0  0
 22 30  1  0  0  0  0
 24 25  1  0  0  0  0
 25 26  1  0  0  0  0
 26 27  1  0  0  0  0
 27 28  1  0  0  0  0
 28 29  3  0  0  0  0
M  END
>  <InstanceId>
6EL5_PU1_A_301

>  <ChemCompId>
PU1

>  <PdbId>
6EL5

>  <ChainId>
A

>  <ResidueNumber>
301

>  <InsertionCode>


>  <Model>
1

>  <AltIds>


>  <MissingHeavyAtoms>
0

>  <ObservedFormula>
C20 N5 O3 F Cl

>  <Name>
8-(2-CHLORO-3,4,5-TRIMETHOXY-BENZYL)-2-FLUORO-9-PENT-4-YLNYL-9H-PURIN-6-YLAMINE

>  <SystematicName>
8-[(2-chloro-3,4,5-trimethoxy-phenyl)methyl]-2-fluoro-9-pent-4-ynyl-purin-6-amine

>  <Synonyms>


>  <Type>
NON-POLYMER

>  <Formula>
C20 H21 Cl F N5 O3

>  <MolecularWeight>
433.864

>  <ModifiedDate>
2011-06-04

>  <Parent>


>  <OneLetterCode>


>  <SubcomponentList>


>  <AmbiguousFlag>
N

>  <InChI>
InChI=1S/C20H21ClFN5O3/c1-5-6-7-8-27-13(24-15-18(23)25-20(22)26-19(15)27)10-11-9-12(28-2)16(29-3)17(30-4)14(11)21/h1,9H,6-8,10H2,2-4H3,(H2,23,25,26)

>  <InChIKey>
KCIOVTSUEXGUFJ-UHFFFAOYSA-N

>  <SMILES>
COc1cc(c(c(c1OC)OC)Cl)Cc2nc3c(nc(nc3n2CCCC#C)F)N

$$$$
