3RLP_3RP_A_901
  RCSB PDB08012020223D
Coordinates from PDB:3RLP:A:901 Model:1 without hydrogens
 18 19  0  0  0  0            999 V2000
   17.5980   -1.9320   49.9900   N 0  0  0  0  0  0  0  0  0  0  0  0
   17.5890    0.3940   49.5140   N 0  0  0  0  0  0  0  0  0  0  0  0
   16.9790   -3.0210   50.5380   C 0  0  0  0  0  0  0  0  0  0  0  0
   17.6790   -4.3490   50.4430   C 0  0  0  0  0  0  0  0  0  0  0  0
   13.8330   -1.5150   51.8430   C 0  0  0  0  0  0  0  0  0  0  0  0
   12.6620   -1.1740   51.0870   C 0  0  0  0  0  0  0  0  0  0  0  0
   11.3990   -1.0650   51.7310   C 0  0  0  0  0  0  0  0  0  0  0  0
   12.4300   -1.6080   53.9260   C 0  0  0  0  0  0  0  0  0  0  0  0
   13.6940   -1.7220   53.2580   C 0  0  0  0  0  0  0  0  0  0  0  0
   15.7460   -2.9430   51.1650   C 0  0  0  0  0  0  0  0  0  0  0  0
   11.2820   -1.2830   53.1350   C 0  0  0  0  0  0  0  0  0  0  0  0
   15.1520   -1.6710   51.2130   C 0  0  0  0  0  0  0  0  0  0  0  0
   16.9630   -0.7150   50.0710   C 0  0  0  0  0  0  0  0  0  0  0  0
   13.3180   -2.1170   56.1500   C 0  0  0  0  0  0  0  0  0  0  0  0
   15.7410   -0.5540   50.6750   N 0  0  0  0  0  0  0  0  0  0  0  0
   12.2160   -1.7910   55.2900   O 0  0  0  0  0  0  0  0  0  0  0  0
   12.7250   -0.8880   49.3630  Cl 0  0  0  0  0  0  0  0  0  0  0  0
    9.7040   -1.1440   53.8430  Cl 0  0  0  0  0  0  0  0  0  0  0  0
  1 13  2  0  0  0  0
  1  3  1  0  0  0  0
  2 13  1  0  0  0  0
  4  3  1  0  0  0  0
  3 10  2  0  0  0  0
  6  5  2  0  0  0  0
 12  5  1  0  0  0  0
  5  9  1  0  0  0  0
 17  6  1  0  0  0  0
  6  7  1  0  0  0  0
  7 11  2  0  0  0  0
 11  8  1  0  0  0  0
  9  8  2  0  0  0  0
  8 16  1  0  0  0  0
 10 12  1  0  0  0  0
 11 18  1  0  0  0  0
 15 12  2  0  0  0  0
 13 15  1  0  0  0  0
 16 14  1  0  0  0  0
M  END
>  <InstanceId>
3RLP_3RP_A_901

>  <ChemCompId>
3RP

>  <PdbId>
3RLP

>  <ChainId>
A

>  <ResidueNumber>
901

>  <InsertionCode>


>  <Model>
1

>  <AltIds>


>  <MissingHeavyAtoms>
0

>  <ObservedFormula>
C12 N3 O Cl2

>  <Name>
4-(2,4-dichloro-5-methoxyphenyl)-6-methylpyrimidin-2-amine

>  <SystematicName>
4-[2,4-bis(chloranyl)-5-methoxy-phenyl]-6-methyl-pyrimidin-2-amine

>  <Synonyms>


>  <Type>
NON-POLYMER

>  <Formula>
C12 H11 Cl2 N3 O

>  <MolecularWeight>
284.141

>  <ModifiedDate>
2011-06-04

>  <Parent>


>  <OneLetterCode>


>  <SubcomponentList>


>  <AmbiguousFlag>
N

>  <InChI>
InChI=1S/C12H11Cl2N3O/c1-6-3-10(17-12(15)16-6)7-4-11(18-2)9(14)5-8(7)13/h3-5H,1-2H3,(H2,15,16,17)

>  <InChIKey>
KYSQWARAEPTJAQ-UHFFFAOYSA-N

>  <SMILES>
Cc1cc(nc(n1)N)c2cc(c(cc2Cl)Cl)OC

$$$$
