4GQR_MYC_A_504
  RCSB PDB08012021513D
Coordinates from PDB:4GQR:A:504 Model:1 without hydrogens
 23 25  0  0  0  0            999 V2000
   14.2640   13.8960   35.1200   C 0  0  0  0  0  0  0  0  0  0  0  0
   15.1520   14.3270   36.0970   C 0  0  0  0  0  0  0  0  0  0  0  0
   14.6650   14.9030   37.2670   C 0  0  0  0  0  0  0  0  0  0  0  0
   13.3060   15.0600   37.4600   C 0  0  0  0  0  0  0  0  0  0  0  0
   12.4130   14.6220   36.4780   C 0  0  0  0  0  0  0  0  0  0  0  0
   12.8910   14.0440   35.3170   C 0  0  0  0  0  0  0  0  0  0  0  0
   15.5370   15.2540   38.2980   C 0  0  0  0  0  0  0  0  0  0  0  0
   14.9800   15.5290   39.5470   C 0  0  0  0  0  0  0  0  0  0  0  0
   13.6000   15.5780   39.6650   C 0  0  0  0  0  0  0  0  0  0  0  0
   12.9770   15.5700   40.9150   C 0  0  0  0  0  0  0  0  0  0  0  0
   13.7160   15.4030   42.0780   C 0  0  0  0  0  0  0  0  0  0  0  0
   13.0720   15.4200   43.3130   C 0  0  0  0  0  0  0  0  0  0  0  0
   11.7040   15.6020   43.3790   C 0  0  0  0  0  0  0  0  0  0  0  0
   10.9640   15.7630   42.2200   C 0  0  0  0  0  0  0  0  0  0  0  0
   11.6020   15.7480   40.9830   C 0  0  0  0  0  0  0  0  0  0  0  0
   12.8130   15.6930   38.5620   O 0  0  0  0  0  0  0  0  0  0  0  0
   16.7430   15.3300   38.1170   O 0  0  0  0  0  0  0  0  0  0  0  0
    9.6120   15.9310   42.2840   O 0  0  0  0  0  0  0  0  0  0  0  0
   11.0770   15.6400   44.5940   O 0  0  0  0  0  0  0  0  0  0  0  0
   13.8030   15.2570   44.4540   O 0  0  0  0  0  0  0  0  0  0  0  0
   15.7950   15.7350   40.6150   O 0  0  0  0  0  0  0  0  0  0  0  0
   12.0170   13.6150   34.3650   O 0  0  0  0  0  0  0  0  0  0  0  0
   16.4900   14.1920   35.9030   O 0  0  0  0  0  0  0  0  0  0  0  0
  1  2  2  0  0  0  0
  1  6  1  0  0  0  0
  2  3  1  0  0  0  0
  2 23  1  0  0  0  0
  3  4  2  0  0  0  0
  3  7  1  0  0  0  0
  4  5  1  0  0  0  0
  4 16  1  0  0  0  0
  5  6  2  0  0  0  0
  6 22  1  0  0  0  0
  7  8  1  0  0  0  0
  7 17  2  0  0  0  0
  8  9  2  0  0  0  0
  8 21  1  0  0  0  0
  9 10  1  0  0  0  0
  9 16  1  0  0  0  0
 10 11  2  0  0  0  0
 10 15  1  0  0  0  0
 11 12  1  0  0  0  0
 12 13  2  0  0  0  0
 12 20  1  0  0  0  0
 13 14  1  0  0  0  0
 13 19  1  0  0  0  0
 14 15  2  0  0  0  0
 14 18  1  0  0  0  0
M  END
>  <InstanceId>
4GQR_MYC_A_504

>  <ChemCompId>
MYC

>  <PdbId>
4GQR

>  <ChainId>
A

>  <ResidueNumber>
504

>  <InsertionCode>


>  <Model>
1

>  <AltIds>


>  <MissingHeavyAtoms>
0

>  <ObservedFormula>
C15 O8

>  <Name>
3,5,7-TRIHYDROXY-2-(3,4,5-TRIHYDROXYPHENYL)-4H-CHROMEN-4-ONE

>  <SystematicName>
3,5,7-trihydroxy-2-(3,4,5-trihydroxyphenyl)chromen-4-one

>  <Synonyms>
2-(3,4,5-TRIHYDROXYPHENYL)-3,5,7-TRIHYDROXY-4H-1-BENZOPYRAN-4-ONE; 3,3',4',5,5',7-HEXAHYDROXYFLAVONE; MYRICETIN; CANNABISCETIN

>  <Type>
NON-POLYMER

>  <Formula>
C15 H10 O8

>  <MolecularWeight>
318.235

>  <ModifiedDate>
2020-06-17

>  <Parent>


>  <OneLetterCode>


>  <SubcomponentList>


>  <AmbiguousFlag>
N

>  <InChI>
InChI=1S/C15H10O8/c16-6-3-7(17)11-10(4-6)23-15(14(22)13(11)21)5-1-8(18)12(20)9(19)2-5/h1-4,16-20,22H

>  <InChIKey>
IKMDFBPHZNJCSN-UHFFFAOYSA-N

>  <SMILES>
c1c(cc(c(c1O)O)O)C2=C(C(=O)c3c(cc(cc3O2)O)O)O

$$$$
