5TMP_Z5A_A_214
  RCSB PDB08022003063D
Coordinates from PDB:5TMP:A:214 Model:1 without hydrogens
 57 61  0  0  0  0            999 V2000
   24.8300  100.6090   17.6250   N 0  0  0  0  0  0  0  0  0  0  0  0
   25.8020   99.7770   18.1640   C 0  0  0  0  0  0  0  0  0  0  0  0
   25.7460   99.3870   19.3310   O 0  0  0  0  0  0  0  0  0  0  0  0
   26.7930   99.3400   17.2530   N 0  0  0  0  0  0  0  0  0  0  0  0
   26.6890   99.4790   15.8470   C 0  0  0  0  0  0  0  0  0  0  0  0
   27.4850   98.9250   15.0980   O 0  0  0  0  0  0  0  0  0  0  0  0
   25.6490  100.3330   15.3660   C 0  0  0  0  0  0  0  0  0  0  0  0
   24.7850  100.8990   16.2530   C 0  0  0  0  0  0  0  0  0  0  0  0
   25.5690  100.6330   13.8470   C 0  0  0  0  0  0  0  0  0  0  0  0
   20.5790  102.5880   17.7280   C 0  0  0  0  0  0  0  0  0  0  0  0
   21.2390  103.3060   16.7350   O 0  0  0  0  0  0  0  0  0  0  0  0
   21.7040  101.9290   18.4960   C 0  0  0  0  0  0  0  0  0  0  0  0
   22.5950  101.1600   17.6420   O 0  0  0  0  0  0  0  0  0  0  0  0
   22.5490  102.7390   19.4510   C 0  0  0  0  0  0  0  0  0  0  0  0
   23.9110  102.3080   19.0590   C 0  0  0  0  0  0  0  0  0  0  0  0
   23.7320  100.9700   18.4870   C 0  0  0  0  0  0  0  0  0  0  0  0
   22.3430  102.2420   20.8140   N 0  0  0  0  0  0  0  0  0  0  0  0
   22.7990  102.9190   21.7370   N 0  3  0  0  0  0  0  0  0  0  0  0
   23.1510  103.4250   22.6750   N 0  5  0  0  0  0  0  0  0  0  0  0
   20.5170  104.1380   15.6090   P 0  0  0  0  0  0  0  0  0  0  0  0
   19.5160  103.3130   14.8790   O 0  0  0  0  0  0  0  0  0  0  0  0
   21.3720  105.0780   14.8310   O 0  5  0  0  0  0  0  0  0  0  0  0
   19.8240  104.9620   16.6090   O 0  0  0  0  0  0  0  0  0  0  0  0
   18.6590  105.9450   16.6280   P 0  0  0  0  0  0  0  0  0  0  0  0
   19.0540  107.0480   17.5400   O 0  0  0  0  0  0  0  0  0  0  0  0
   17.3590  105.2070   16.7690   O 0  5  0  0  0  0  0  0  0  0  0  0
   18.6140  106.5790   15.1800   O 0  0  0  0  0  0  0  0  0  0  0  0
   17.8820  107.7370   14.5000   P 0  0  0  0  0  0  0  0  0  0  0  0
   17.8190  107.5040   13.0530   O 0  0  0  0  0  0  0  0  0  0  0  0
   16.6530  107.9870   15.3210   O 0  5  0  0  0  0  0  0  0  0  0  0
   18.8420  108.9310   14.7940   O 0  0  0  0  0  0  0  0  0  0  0  0
   18.8090  110.4860   14.6860   P 0  0  0  0  0  0  0  0  0  0  0  0
   17.3960  110.8900   14.7580   O 0  0  0  0  0  0  0  0  0  0  0  0
   19.5840  110.7240   13.4640   O 0  5  0  0  0  0  0  0  0  0  0  0
   19.5140  111.1720   15.9470   O 0  0  0  0  0  0  0  0  0  0  0  0
   19.6130  112.6570   16.6440   P 0  0  0  0  0  0  0  0  0  0  0  0
   20.6360  112.5660   17.6960   O 0  0  0  0  0  0  0  0  0  0  0  0
   19.7390  113.7020   15.5920   O 0  5  0  0  0  0  0  0  0  0  0  0
   18.1990  112.9170   17.3640   O 0  0  0  0  0  0  0  0  0  0  0  0
   17.8250  112.2260   18.5350   C 0  0  0  0  0  0  0  0  0  0  0  0
   16.8740  112.9690   19.4230   C 0  0  0  0  0  0  0  0  0  0  0  0
   17.5200  114.0150   20.1710   O 0  0  0  0  0  0  0  0  0  0  0  0
   15.6490  113.6140   18.6280   C 0  0  0  0  0  0  0  0  0  0  0  0
   14.4870  113.5780   19.4780   O 0  0  0  0  0  0  0  0  0  0  0  0
   16.1420  115.0450   18.4360   C 0  0  0  0  0  0  0  0  0  0  0  0
   15.1160  116.0470   18.1960   O 0  0  0  0  0  0  0  0  0  0  0  0
   16.9690  115.2780   19.7200   C 0  0  0  0  0  0  0  0  0  0  0  0
   18.0260  116.2850   19.4850   N 0  0  0  0  0  0  0  0  0  0  0  0
   19.0670  116.3270   18.5740   C 0  0  0  0  0  0  0  0  0  0  0  0
   19.6880  117.4820   18.5530   N 0  0  0  0  0  0  0  0  0  0  0  0
   19.1400  118.1440   19.6700   C 0  0  0  0  0  0  0  0  0  0  0  0
   19.3950  119.4100   20.2710   C 0  0  0  0  0  0  0  0  0  0  0  0
   20.3650  120.2290   19.8350   N 0  0  0  0  0  0  0  0  0  0  0  0
   18.5690  119.8030   21.2910   N 0  0  0  0  0  0  0  0  0  0  0  0
   17.5680  118.9980   21.6550   C 0  0  0  0  0  0  0  0  0  0  0  0
   17.1790  117.8580   21.0830   N 0  0  0  0  0  0  0  0  0  0  0  0
   18.0120  117.5000   20.0920   C 0  0  0  0  0  0  0  0  0  0  0  0
  1  2  1  0  0  0  0
  1  8  1  0  0  0  0
  1 16  1  0  0  0  0
  2  3  2  0  0  0  0
  2  4  1  0  0  0  0
  4  5  1  0  0  0  0
  5  6  2  0  0  0  0
  5  7  1  0  0  0  0
  7  8  2  0  0  0  0
  7  9  1  0  0  0  0
 10 11  1  0  0  0  0
 10 12  1  0  0  0  0
 11 20  1  0  0  0  0
 12 13  1  0  0  0  0
 12 14  1  0  0  0  0
 13 16  1  0  0  0  0
 14 15  1  0  0  0  0
 14 17  1  0  0  0  0
 15 16  1  0  0  0  0
 17 18  2  0  0  0  0
 18 19  2  0  0  0  0
 20 21  2  0  0  0  0
 20 22  1  0  0  0  0
 20 23  1  0  0  0  0
 23 24  1  0  0  0  0
 24 25  2  0  0  0  0
 24 26  1  0  0  0  0
 24 27  1  0  0  0  0
 27 28  1  0  0  0  0
 28 29  2  0  0  0  0
 28 30  1  0  0  0  0
 28 31  1  0  0  0  0
 31 32  1  0  0  0  0
 32 33  2  0  0  0  0
 32 34  1  0  0  0  0
 32 35  1  0  0  0  0
 35 36  1  0  0  0  0
 36 37  2  0  0  0  0
 36 38  1  0  0  0  0
 36 39  1  0  0  0  0
 39 40  1  0  0  0  0
 40 41  1  0  0  0  0
 41 42  1  0  0  0  0
 41 43  1  0  0  0  0
 42 47  1  0  0  0  0
 43 44  1  0  0  0  0
 43 45  1  0  0  0  0
 45 46  1  0  0  0  0
 45 47  1  0  0  0  0
 47 48  1  0  0  0  0
 48 49  1  0  0  0  0
 48 57  1  0  0  0  0
 49 50  2  0  0  0  0
 50 51  1  0  0  0  0
 51 52  1  0  0  0  0
 51 57  2  0  0  0  0
 52 53  1  0  0  0  0
 52 54  2  0  0  0  0
 54 55  1  0  0  0  0
 55 56  2  0  0  0  0
 56 57  1  0  0  0  0
M  CHG  7  18   1  19  -1  22  -1  26  -1  30  -1  34  -1  38  -1
M  END
>  <InstanceId>
5TMP_Z5A_A_214

>  <ChemCompId>
Z5A

>  <PdbId>
5TMP

>  <ChainId>
A

>  <ResidueNumber>
214

>  <InsertionCode>


>  <Model>
1

>  <AltIds>


>  <MissingHeavyAtoms>
0

>  <ObservedFormula>
C20 N10 O22 P5

>  <Name>
P1-(5'-ADENOSYL)P5-(5'-(3'AZIDO-3'-DEOXYTHYMIDYL))PENTAPHOSPHATE

>  <SystematicName>
[[(2R,3S,4R,5R)-5-(6-aminopurin-9-yl)-3,4-bis(oxidanyl)oxolan-2-yl]methoxy-oxidanidyl-phosphoryl] [[[[(2S,3S,5R)-3-azido-5-[5-methyl-2,4-bis(oxidanylidene)pyrimidin-1-yl]oxolan-2-yl]methoxy-oxidanidyl-phosphoryl]oxy-oxidanidyl-phosphoryl]oxy-oxidanidyl-phosphoryl] phosphate

>  <Synonyms>


>  <Type>
NON-POLYMER

>  <Formula>
C20 H24 N10 O22 P5

>  <MolecularWeight>
911.327

>  <ModifiedDate>
2011-06-07

>  <Parent>


>  <OneLetterCode>


>  <SubcomponentList>


>  <AmbiguousFlag>
N

>  <InChI>
InChI=1S/C20H29N10O22P5/c1-8-3-29(20(34)26-18(8)33)12-2-9(27-28-22)10(47-12)4-45-53(35,36)49-55(39,40)51-57(43,44)52-56(41,42)50-54(37,38)46-5-11-14(31)15(32)19(48-11)30-7-25-13-16(21)23-6-24-17(13)30/h3,6-7,9-12,14-15,19,31-32H,2,4-5H2,1H3,(H,35,36)(H,37,38)(H,39,40)(H,41,42)(H,43,44)(H2,21,23,24)(H,26,33,34)/p-5/t9-,10+,11+,12+,14+,15+,19+/m0/s1

>  <InChIKey>
QNIWSXQXLJIUJW-SLFMBYJQSA-I

>  <SMILES>
CC1=CN(C(=O)NC1=O)[C@H]2C[C@@H]([C@H](O2)COP(=O)([O-])OP(=O)([O-])OP(=O)([O-])OP(=O)([O-])OP(=O)([O-])OC[C@@H]3[C@H]([C@H]([C@@H](O3)n4cnc5c4ncnc5N)O)O)N=[N+]=[N-]

$$$$
