1RTF_BEN_B_245
  RCSB PDB08012015533D
Coordinates from PDB:1RTF:B:245 Model:1 without hydrogens
  9  9  0  0  0  0            999 V2000
   -6.9210   31.2060   33.8930   C 0  0  0  0  0  0  0  0  0  0  0  0
   -8.1890   30.8360   34.3440   C 0  0  0  0  0  0  0  0  0  0  0  0
   -8.3350   29.8630   35.3420   C 0  0  0  0  0  0  0  0  0  0  0  0
   -7.2060   29.2540   35.8930   C 0  0  0  0  0  0  0  0  0  0  0  0
   -5.9320   29.6180   35.4450   C 0  0  0  0  0  0  0  0  0  0  0  0
   -5.7940   30.5890   34.4500   C 0  0  0  0  0  0  0  0  0  0  0  0
   -6.7670   32.2490   32.8590   C 0  0  0  0  0  0  0  0  0  0  0  0
   -5.5700   32.6410   32.4970   N 0  0  0  0  0  0  0  0  0  0  0  0
   -7.8240   32.7850   32.2990   N 0  0  0  0  0  0  0  0  0  0  0  0
  1  2  2  0  0  0  0
  1  6  1  0  0  0  0
  1  7  1  0  0  0  0
  2  3  1  0  0  0  0
  3  4  2  0  0  0  0
  4  5  1  0  0  0  0
  5  6  2  0  0  0  0
  7  8  2  0  0  0  0
  7  9  1  0  0  0  0
M  END
>  <InstanceId>
1RTF_BEN_B_245

>  <ChemCompId>
BEN

>  <PdbId>
1RTF

>  <ChainId>
B

>  <ResidueNumber>
245

>  <InsertionCode>


>  <Model>
1

>  <AltIds>


>  <MissingHeavyAtoms>
0

>  <ObservedFormula>
C7 N2

>  <Name>
BENZAMIDINE

>  <SystematicName>
benzenecarboximidamide

>  <Synonyms>


>  <Type>
NON-POLYMER

>  <Formula>
C7 H8 N2

>  <MolecularWeight>
120.152

>  <ModifiedDate>
2011-06-04

>  <Parent>


>  <OneLetterCode>


>  <SubcomponentList>


>  <AmbiguousFlag>
N

>  <InChI>
InChI=1S/C7H8N2/c8-7(9)6-4-2-1-3-5-6/h1-5H,(H3,8,9)

>  <InChIKey>
PXXJHWLDUBFPOL-UHFFFAOYSA-N

>  <SMILES>
[H]/N=C(\c1ccccc1)/N

$$$$
