5VD3_H8H_A_401
  RCSB PDB08022003203D
Coordinates from PDB:5VD3:A:401 Model:1 without hydrogens
 38 43  0  0  0  0            999 V2000
   -6.7590    6.9640    3.7240   C 0  0  0  0  0  0  0  0  0  0  0  0
   -7.5020    6.1430    2.7440   N 0  0  0  0  0  0  0  0  0  0  0  0
   -6.7440    4.8780    2.5490   C 0  0  0  0  0  0  0  0  0  0  0  0
   -7.5530    3.9360    1.6320   C 0  0  0  0  0  0  0  0  0  0  0  0
   -8.9070    3.6740    2.1780   N 0  0  0  0  0  0  0  0  0  0  0  0
   -9.5820    2.9290    1.1240   C 0  0  0  0  0  0  0  0  0  0  0  0
  -10.8670    2.2730    1.5910   C 0  0  0  0  0  0  0  0  0  0  0  0
  -11.8950    3.2480    1.5910   O 0  0  0  0  0  0  0  0  0  0  0  0
  -13.1380    2.7470    1.8620   C 0  0  0  0  0  0  0  0  0  0  0  0
  -14.1490    3.7000    1.9780   C 0  0  0  0  0  0  0  0  0  0  0  0
  -15.4580    3.3330    2.2480   C 0  0  0  0  0  0  0  0  0  0  0  0
  -16.4860    4.2230    2.3690   O 0  0  0  0  0  0  0  0  0  0  0  0
  -16.2560    5.5860    2.0130   C 0  0  0  0  0  0  0  0  0  0  0  0
  -16.2790    5.5790    0.4760   C 0  0  0  0  0  0  0  0  0  0  0  0
  -17.1630    6.6500   -0.1660   C 0  0  0  0  0  0  0  0  0  0  0  0
  -18.3700    6.8080    0.5750   O 0  0  0  0  0  0  0  0  0  0  0  0
  -18.1760    7.3090    1.8900   C 0  0  0  0  0  0  0  0  0  0  0  0
  -17.4250    6.2610    2.7300   C 0  0  0  0  0  0  0  0  0  0  0  0
  -15.7840    1.9650    2.4160   C 0  0  0  0  0  0  0  0  0  0  0  0
  -17.1160    1.4770    2.6940   C 0  0  0  0  0  0  0  0  0  0  0  0
  -18.2220    2.3310    2.8370   N 0  0  0  0  0  0  0  0  0  0  0  0
  -19.5440    1.8800    3.1410   C 0  0  0  0  0  0  0  0  0  0  0  0
  -19.8210    1.0460    4.2290   C 0  0  0  0  0  0  0  0  0  0  0  0
  -19.0050    0.4890    5.1950   O 0  0  0  0  0  0  0  0  0  0  0  0
  -19.7870   -0.3600    6.0460   C 0  0  0  0  0  0  0  0  0  0  0  0
  -21.1310   -0.1680    5.5880   O 0  0  0  0  0  0  0  0  0  0  0  0
  -21.1330    0.6320    4.4740   C 0  0  0  0  0  0  0  0  0  0  0  0
  -22.1720    1.0420    3.6560   C 0  0  0  0  0  0  0  0  0  0  0  0
  -21.9190    1.8700    2.5760   C 0  0  0  0  0  0  0  0  0  0  0  0
  -20.6180    2.2770    2.3280   C 0  0  0  0  0  0  0  0  0  0  0  0
  -20.3220    3.3170    0.9690  Cl 0  0  0  0  0  0  0  0  0  0  0  0
  -17.2840    0.1530    2.8260   N 0  0  0  0  0  0  0  0  0  0  0  0
  -16.2900   -0.6800    2.7060   C 0  0  0  0  0  0  0  0  0  0  0  0
  -15.0530   -0.2860    2.4490   N 0  0  0  0  0  0  0  0  0  0  0  0
  -14.7440    1.0010    2.2980   C 0  0  0  0  0  0  0  0  0  0  0  0
  -13.4360    1.3960    2.0210   C 0  0  0  0  0  0  0  0  0  0  0  0
   -9.6220    4.9660    2.3460   C 0  0  0  0  0  0  0  0  0  0  0  0
   -8.8540    5.8780    3.3150   C 0  0  0  0  0  0  0  0  0  0  0  0
  1  2  1  0  0  0  0
  2  3  1  0  0  0  0
  2 38  1  0  0  0  0
  3  4  1  0  0  0  0
  4  5  1  0  0  0  0
  5  6  1  0  0  0  0
  5 37  1  0  0  0  0
  6  7  1  0  0  0  0
  7  8  1  0  0  0  0
  8  9  1  0  0  0  0
  9 10  1  0  0  0  0
  9 36  2  0  0  0  0
 10 11  2  0  0  0  0
 11 12  1  0  0  0  0
 11 19  1  0  0  0  0
 12 13  1  0  0  0  0
 13 14  1  0  0  0  0
 13 18  1  0  0  0  0
 14 15  1  0  0  0  0
 15 16  1  0  0  0  0
 16 17  1  0  0  0  0
 17 18  1  0  0  0  0
 19 20  2  0  0  0  0
 19 35  1  0  0  0  0
 20 21  1  0  0  0  0
 20 32  1  0  0  0  0
 21 22  1  0  0  0  0
 22 23  1  0  0  0  0
 22 30  2  0  0  0  0
 23 24  1  0  0  0  0
 23 27  2  0  0  0  0
 24 25  1  0  0  0  0
 25 26  1  0  0  0  0
 26 27  1  0  0  0  0
 27 28  1  0  0  0  0
 28 29  2  0  0  0  0
 29 30  1  0  0  0  0
 30 31  1  0  0  0  0
 32 33  2  0  0  0  0
 33 34  1  0  0  0  0
 34 35  2  0  0  0  0
 35 36  1  0  0  0  0
 37 38  1  0  0  0  0
M  END
>  <InstanceId>
5VD3_H8H_A_401

>  <ChemCompId>
H8H

>  <PdbId>
5VD3

>  <ChainId>
A

>  <ResidueNumber>
401

>  <InsertionCode>


>  <Model>
1

>  <AltIds>


>  <MissingHeavyAtoms>
0

>  <ObservedFormula>
C27 N5 O5 Cl

>  <Name>
N-(5-CHLORO-1,3-BENZODIOXOL-4-YL)-7-[2-(4-METHYLPIPERAZIN-1-YL)ETHOXY]-5-(TETRAHYDRO-2H-PYRAN-4-YLOXY)QUINAZOLIN-4-AMINE

>  <SystematicName>
N-(5-chloranyl-1,3-benzodioxol-4-yl)-7-[2-(4-methylpiperazin-1-yl)ethoxy]-5-(oxan-4-yloxy)quinazolin-4-amine

>  <Synonyms>
SARACATINIB

>  <Type>
NON-POLYMER

>  <Formula>
C27 H32 Cl N5 O5

>  <MolecularWeight>
542.026

>  <ModifiedDate>
2015-06-24

>  <Parent>


>  <OneLetterCode>


>  <SubcomponentList>


>  <AmbiguousFlag>
N

>  <InChI>
InChI=1S/C27H32ClN5O5/c1-32-6-8-33(9-7-32)10-13-35-19-14-21-24(23(15-19)38-18-4-11-34-12-5-18)27(30-16-29-21)31-25-20(28)2-3-22-26(25)37-17-36-22/h2-3,14-16,18H,4-13,17H2,1H3,(H,29,30,31)

>  <InChIKey>
OUKYUETWWIPKQR-UHFFFAOYSA-N

>  <SMILES>
CN1CCN(CC1)CCOc2cc3c(c(c2)OC4CCOCC4)c(ncn3)Nc5c(ccc6c5OCO6)Cl

$$$$
