3TA0_ATP_A_200
  RCSB PDB08012020333D
Coordinates from PDB:3TA0:A:200 Model:1 without hydrogens
 31 33  0  0  0  0            999 V2000
  -57.7280  -16.6320  -15.4520   P 0  0  0  0  0  0  0  0  0  0  0  0
  -58.2010  -16.0980  -14.0800   O 0  0  0  0  0  0  0  0  0  0  0  0
  -56.1890  -16.5250  -15.4880   O 0  0  0  0  0  0  0  0  0  0  0  0
  -58.1390  -18.0420  -15.7170   O 0  0  0  0  0  0  0  0  0  0  0  0
  -58.9860  -14.5780  -17.0300   P 0  0  0  0  0  0  0  0  0  0  0  0
  -60.3390  -14.8180  -16.3440   O 0  0  0  0  0  0  0  0  0  0  0  0
  -59.6020  -14.5910  -18.4230   O 0  0  0  0  0  0  0  0  0  0  0  0
  -58.1100  -15.8580  -16.7680   O 0  0  0  0  0  0  0  0  0  0  0  0
  -57.2060  -12.8850  -15.7380   P 0  0  0  0  0  0  0  0  0  0  0  0
  -57.2900  -13.2740  -14.2700   O 0  0  0  0  0  0  0  0  0  0  0  0
  -56.1310  -13.8010  -16.3900   O 0  0  0  0  0  0  0  0  0  0  0  0
  -58.5190  -13.1720  -16.4930   O 0  0  0  0  0  0  0  0  0  0  0  0
  -56.8100  -11.3260  -16.0130   O 0  0  0  0  0  0  0  0  0  0  0  0
  -57.0340  -10.3010  -15.0610   C 0  0  0  0  0  0  0  0  0  0  0  0
  -56.3150   -9.0200  -15.5250   C 0  0  0  0  0  0  0  0  0  0  0  0
  -54.8890   -9.2240  -15.5190   O 0  0  0  0  0  0  0  0  0  0  0  0
  -56.6550   -8.6000  -16.9420   C 0  0  0  0  0  0  0  0  0  0  0  0
  -57.8780   -7.9290  -17.0350   O 0  0  0  0  0  0  0  0  0  0  0  0
  -55.4570   -7.7520  -17.3840   C 0  0  0  0  0  0  0  0  0  0  0  0
  -55.5460   -6.4160  -16.8460   O 0  0  0  0  0  0  0  0  0  0  0  0
  -54.3440   -8.5450  -16.7130   C 0  0  0  0  0  0  0  0  0  0  0  0
  -53.6640   -9.5080  -17.5430   N 0  0  0  0  0  0  0  0  0  0  0  0
  -53.9830  -10.8250  -17.7140   C 0  0  0  0  0  0  0  0  0  0  0  0
  -53.1530  -11.4470  -18.5180   N 0  0  0  0  0  0  0  0  0  0  0  0
  -52.2430  -10.5040  -18.8920   C 0  0  0  0  0  0  0  0  0  0  0  0
  -51.1000  -10.5500  -19.7370   C 0  0  0  0  0  0  0  0  0  0  0  0
  -50.7080  -11.7050  -20.3640   N 0  0  0  0  0  0  0  0  0  0  0  0
  -50.3630   -9.3850  -19.9080   N 0  0  0  0  0  0  0  0  0  0  0  0
  -50.7730   -8.2340  -19.2780   C 0  0  0  0  0  0  0  0  0  0  0  0
  -51.8520   -8.0830  -18.4410   N 0  0  0  0  0  0  0  0  0  0  0  0
  -52.5440   -9.2550  -18.2930   C 0  0  0  0  0  0  0  0  0  0  0  0
  1  2  2  0  0  0  0
  1  3  1  0  0  0  0
  1  4  1  0  0  0  0
  1  8  1  0  0  0  0
  5  6  2  0  0  0  0
  5  7  1  0  0  0  0
  5  8  1  0  0  0  0
  5 12  1  0  0  0  0
  9 10  2  0  0  0  0
  9 11  1  0  0  0  0
  9 12  1  0  0  0  0
  9 13  1  0  0  0  0
 13 14  1  0  0  0  0
 14 15  1  0  0  0  0
 15 16  1  0  0  0  0
 15 17  1  0  0  0  0
 16 21  1  0  0  0  0
 17 18  1  0  0  0  0
 17 19  1  0  0  0  0
 19 20  1  0  0  0  0
 19 21  1  0  0  0  0
 21 22  1  0  0  0  0
 22 23  1  0  0  0  0
 22 31  1  0  0  0  0
 23 24  2  0  0  0  0
 24 25  1  0  0  0  0
 25 26  1  0  0  0  0
 25 31  2  0  0  0  0
 26 27  1  0  0  0  0
 26 28  2  0  0  0  0
 28 29  1  0  0  0  0
 29 30  2  0  0  0  0
 30 31  1  0  0  0  0
M  END
>  <InstanceId>
3TA0_ATP_A_200

>  <ChemCompId>
ATP

>  <PdbId>
3TA0

>  <ChainId>
A

>  <ResidueNumber>
200

>  <InsertionCode>


>  <Model>
1

>  <AltIds>


>  <MissingHeavyAtoms>
0

>  <ObservedFormula>
C10 N5 O13 P3

>  <Name>
ADENOSINE-5'-TRIPHOSPHATE

>  <SystematicName>
[[(2R,3S,4R,5R)-5-(6-aminopurin-9-yl)-3,4-dihydroxy-oxolan-2-yl]methoxy-hydroxy-phosphoryl] phosphono hydrogen phosphate

>  <Synonyms>


>  <Type>
NON-POLYMER

>  <Formula>
C10 H16 N5 O13 P3

>  <MolecularWeight>
507.181

>  <ModifiedDate>
2011-06-04

>  <Parent>


>  <OneLetterCode>


>  <SubcomponentList>


>  <AmbiguousFlag>
N

>  <InChI>
InChI=1S/C10H16N5O13P3/c11-8-5-9(13-2-12-8)15(3-14-5)10-7(17)6(16)4(26-10)1-25-30(21,22)28-31(23,24)27-29(18,19)20/h2-4,6-7,10,16-17H,1H2,(H,21,22)(H,23,24)(H2,11,12,13)(H2,18,19,20)/t4-,6-,7-,10-/m1/s1

>  <InChIKey>
ZKHQWZAMYRWXGA-KQYNXXCUSA-N

>  <SMILES>
c1nc(c2c(n1)n(cn2)[C@H]3[C@@H]([C@@H]([C@H](O3)CO[P@@](=O)(O)O[P@](=O)(O)OP(=O)(O)O)O)O)N

$$$$
