4G0Z_5GP_A_801
  RCSB PDB08012021463D
Coordinates from PDB:4G0Z:A:801 Model:1 without hydrogens
 24 26  0  0  0  0            999 V2000
   25.3970   34.6460   38.2740   P 0  0  0  0  0  0  0  0  0  0  0  0
   25.9450   35.9870   38.6840   O 0  0  0  0  0  0  0  0  0  0  0  0
   25.6930   34.3060   36.8300   O 0  0  0  0  0  0  0  0  0  0  0  0
   23.9740   34.3570   38.6910   O 0  0  0  0  0  0  0  0  0  0  0  0
   26.2720   33.5790   39.1110   O 0  0  0  0  0  0  0  0  0  0  0  0
   27.7030   33.5630   39.0420   C 0  0  0  0  0  0  0  0  0  0  0  0
   28.1960   32.4700   39.9940   C 0  0  0  0  0  0  0  0  0  0  0  0
   27.6480   31.2080   39.6170   O 0  0  0  0  0  0  0  0  0  0  0  0
   29.7110   32.3040   40.0060   C 0  0  0  0  0  0  0  0  0  0  0  0
   30.2400   32.7950   41.2440   O 0  0  0  0  0  0  0  0  0  0  0  0
   29.9570   30.8160   39.9510   C 0  0  0  0  0  0  0  0  0  0  0  0
   30.5730   30.4560   41.1850   O 0  0  0  0  0  0  0  0  0  0  0  0
   28.5890   30.1610   39.8460   C 0  0  0  0  0  0  0  0  0  0  0  0
   28.5250   29.1960   38.7200   N 0  0  0  0  0  0  0  0  0  0  0  0
   28.1670   27.9010   38.8190   C 0  0  0  0  0  0  0  0  0  0  0  0
   28.1960   27.3410   37.5870   N 0  0  0  0  0  0  0  0  0  0  0  0
   28.5690   28.3010   36.7090   C 0  0  0  0  0  0  0  0  0  0  0  0
   28.7640   28.3100   35.3350   C 0  0  0  0  0  0  0  0  0  0  0  0
   28.5840   27.2550   34.6870   O 0  0  0  0  0  0  0  0  0  0  0  0
   29.1410   29.4480   34.7310   N 0  0  0  0  0  0  0  0  0  0  0  0
   29.3250   30.5760   35.4360   C 0  0  0  0  0  0  0  0  0  0  0  0
   29.7040   31.7150   34.8030   N 0  0  0  0  0  0  0  0  0  0  0  0
   29.1440   30.5960   36.7780   N 0  0  0  0  0  0  0  0  0  0  0  0
   28.7640   29.4710   37.4300   C 0  0  0  0  0  0  0  0  0  0  0  0
  1  2  2  0  0  0  0
  1  3  1  0  0  0  0
  1  4  1  0  0  0  0
  1  5  1  0  0  0  0
  5  6  1  0  0  0  0
  6  7  1  0  0  0  0
  7  8  1  0  0  0  0
  7  9  1  0  0  0  0
  8 13  1  0  0  0  0
  9 10  1  0  0  0  0
  9 11  1  0  0  0  0
 11 12  1  0  0  0  0
 11 13  1  0  0  0  0
 13 14  1  0  0  0  0
 14 15  1  0  0  0  0
 14 24  1  0  0  0  0
 15 16  2  0  0  0  0
 16 17  1  0  0  0  0
 17 18  1  0  0  0  0
 17 24  2  0  0  0  0
 18 19  2  0  0  0  0
 18 20  1  0  0  0  0
 20 21  1  0  0  0  0
 21 22  1  0  0  0  0
 21 23  2  0  0  0  0
 23 24  1  0  0  0  0
M  END
>  <InstanceId>
4G0Z_5GP_A_801

>  <ChemCompId>
5GP

>  <PdbId>
4G0Z

>  <ChainId>
A

>  <ResidueNumber>
801

>  <InsertionCode>


>  <Model>
1

>  <AltIds>


>  <MissingHeavyAtoms>
0

>  <ObservedFormula>
C10 N5 O8 P

>  <Name>
GUANOSINE-5'-MONOPHOSPHATE

>  <SystematicName>
[(2R,3S,4R,5R)-5-(2-amino-6-oxo-1H-purin-9-yl)-3,4-dihydroxy-oxolan-2-yl]methyl dihydrogen phosphate

>  <Synonyms>


>  <Type>
NON-POLYMER

>  <Formula>
C10 H14 N5 O8 P

>  <MolecularWeight>
363.221

>  <ModifiedDate>
2011-06-04

>  <Parent>


>  <OneLetterCode>


>  <SubcomponentList>


>  <AmbiguousFlag>
N

>  <InChI>
InChI=1S/C10H14N5O8P/c11-10-13-7-4(8(18)14-10)12-2-15(7)9-6(17)5(16)3(23-9)1-22-24(19,20)21/h2-3,5-6,9,16-17H,1H2,(H2,19,20,21)(H3,11,13,14,18)/t3-,5-,6-,9-/m1/s1

>  <InChIKey>
RQFCJASXJCIDSX-UUOKFMHZSA-N

>  <SMILES>
c1nc2c(n1[C@H]3[C@@H]([C@@H]([C@H](O3)COP(=O)(O)O)O)O)N=C(NC2=O)N

$$$$
