6GWR_FEW_A_1001
  RCSB PDB08022004523D
Coordinates from PDB:6GWR:A:1001 Model:1 without hydrogens
 41 45  0  0  0  0            999 V2000
   -3.3190   21.4150   -1.3930   C 0  0  0  0  0  0  0  0  0  0  0  0
   -7.6690   22.7100   -2.3920   C 0  0  0  0  0  0  0  0  0  0  0  0
   -6.8370   23.4110   -0.3130   C 0  0  0  0  0  0  0  0  0  0  0  0
   -5.3750   23.0630   -0.7870   C 0  0  0  0  0  0  0  0  0  0  0  0
   -2.0490   21.8460   -0.9880   C 0  0  0  0  0  0  0  0  0  0  0  0
    0.0600   21.5520    0.3990   C 0  0  0  0  0  0  0  0  0  0  0  0
   -1.8060   19.9470    0.4530   C 0  0  0  0  0  0  0  0  0  0  0  0
   -6.8940   12.5800    4.2560   C 0  0  0  0  0  0  0  0  0  0  0  0
   -5.5200   12.5050    3.5170   C 0  0  0  0  0  0  0  0  0  0  0  0
   -5.5590   11.5250    2.3110   C 0  0  0  0  0  0  0  0  0  0  0  0
   -4.9880   13.9230    3.0630   C 0  0  0  0  0  0  0  0  0  0  0  0
   -5.3790   14.4650    1.8800   C 0  0  0  0  0  0  0  0  0  0  0  0
   -4.8920   15.6990    1.4990   C 0  0  0  0  0  0  0  0  0  0  0  0
   -4.0060   16.3870    2.3530   C 0  0  0  0  0  0  0  0  0  0  0  0
   -3.4140   17.7670    1.9530   C 0  0  0  0  0  0  0  0  0  0  0  0
   -3.1010   19.5070    0.0560   C 0  0  0  0  0  0  0  0  0  0  0  0
   -3.8260   20.2280   -0.8780   C 0  0  0  0  0  0  0  0  0  0  0  0
   -4.1200   22.2510   -2.4440   C 0  0  0  0  0  0  0  0  0  0  0  0
   -6.3280   21.9010   -2.4700   C 0  0  0  0  0  0  0  0  0  0  0  0
   -8.9640   23.2920   -0.7660   C 0  0  0  0  0  0  0  0  0  0  0  0
   -1.2970   21.0930   -0.0490   C 0  0  0  0  0  0  0  0  0  0  0  0
   -3.6160   15.8510    3.5060   C 0  0  0  0  0  0  0  0  0  0  0  0
   -4.1030   14.6070    3.8820   C 0  0  0  0  0  0  0  0  0  0  0  0
   -3.6390   14.0360    5.1990   C 0  0  0  0  0  0  0  0  0  0  0  0
   -3.2260   13.5880    6.3100   C 0  0  0  0  0  0  0  0  0  0  0  0
   -2.6870   13.0320    7.6430   C 0  0  0  0  0  0  0  0  0  0  0  0
   -1.4070   12.4250    7.8410   C 0  0  0  0  0  0  0  0  0  0  0  0
   -2.5300   12.4810    9.7230   C 0  0  0  0  0  0  0  0  0  0  0  0
   -2.9260   12.3530   11.0090   C 0  0  0  0  0  0  0  0  0  0  0  0
   -4.9980   13.3910   10.5050   C 0  0  0  0  0  0  0  0  0  0  0  0
   -4.6100   13.5190    9.2220   C 0  0  0  0  0  0  0  0  0  0  0  0
    0.8800   20.4300    0.5360   F 0  0  0  0  0  0  0  0  0  0  0  0
   -0.0180   22.1870    1.5910   F 0  0  0  0  0  0  0  0  0  0  0  0
    0.6150   22.4220   -0.5580   F 0  0  0  0  0  0  0  0  0  0  0  0
   -3.6430   18.2360    0.5880   N 0  0  0  0  0  0  0  0  0  0  0  0
   -5.2890   22.6950   -2.0780   N 0  0  0  0  0  0  0  0  0  0  0  0
   -7.8120   23.4810   -1.2840   N 0  0  0  0  0  0  0  0  0  0  0  0
   -1.3400   12.0990    9.1080   N 0  0  0  0  0  0  0  0  0  0  0  0
   -4.1990   12.8260   11.3970   N 0  0  0  0  0  0  0  0  0  0  0  0
   -3.3270   13.0400    8.8410   N 0  0  0  0  0  0  0  0  0  0  0  0
   -2.7750   18.3640    2.7250   O 0  0  0  0  0  0  0  0  0  0  0  0
 19  2  1  0  0  0  0
 19 36  1  0  0  0  0
 18 36  1  0  0  0  0
 18  1  1  0  0  0  0
  2 37  1  0  0  0  0
 36  4  1  0  0  0  0
  1  5  2  0  0  0  0
  1 17  1  0  0  0  0
 37 20  1  0  0  0  0
 37  3  1  0  0  0  0
  5 21  1  0  0  0  0
 17 16  2  0  0  0  0
  4  3  1  0  0  0  0
 34  6  1  0  0  0  0
 21  6  1  0  0  0  0
 21  7  2  0  0  0  0
 16  7  1  0  0  0  0
 16 35  1  0  0  0  0
  6 32  1  0  0  0  0
  6 33  1  0  0  0  0
 35 15  1  0  0  0  0
 13 12  2  0  0  0  0
 13 14  1  0  0  0  0
 12 11  1  0  0  0  0
 15 14  1  0  0  0  0
 15 41  2  0  0  0  0
 10  9  1  0  0  0  0
 14 22  2  0  0  0  0
 11  9  1  0  0  0  0
 11 23  2  0  0  0  0
 22 23  1  0  0  0  0
  9  8  1  0  0  0  0
 23 24  1  0  0  0  0
 24 25  3  0  0  0  0
 25 26  1  0  0  0  0
 26 27  2  0  0  0  0
 26 40  1  0  0  0  0
 27 38  1  0  0  0  0
 40 31  1  0  0  0  0
 40 28  1  0  0  0  0
 38 28  2  0  0  0  0
 31 30  2  0  0  0  0
 28 29  1  0  0  0  0
 30 39  1  0  0  0  0
 29 39  2  0  0  0  0
M  END
>  <InstanceId>
6GWR_FEW_A_1001

>  <ChemCompId>
FEW

>  <PdbId>
6GWR

>  <ChainId>
A

>  <ResidueNumber>
1001

>  <InsertionCode>


>  <Model>
1

>  <AltIds>


>  <MissingHeavyAtoms>
0

>  <ObservedFormula>
C31 N6 O F3

>  <Name>
3-(2-imidazo[1,2-a]pyrazin-3-ylethynyl)-~{N}-[3-[(4-methylpiperazin-1-yl)methyl]-5-(trifluoromethyl)phenyl]-4-propan-2-yl-benzamide

>  <SystematicName>
3-(2-imidazo[1,2-a]pyrazin-3-ylethynyl)-~{N}-[3-[(4-methylpiperazin-1-yl)methyl]-5-(trifluoromethyl)phenyl]-4-propan-2-yl-benzamide

>  <Synonyms>


>  <Type>
NON-POLYMER

>  <Formula>
C31 H31 F3 N6 O

>  <MolecularWeight>
560.613

>  <ModifiedDate>
2018-08-03

>  <Parent>


>  <OneLetterCode>


>  <SubcomponentList>


>  <AmbiguousFlag>
N

>  <InChI>
InChI=1S/C31H31F3N6O/c1-21(2)28-7-5-24(16-23(28)4-6-27-18-36-29-19-35-8-9-40(27)29)30(41)37-26-15-22(14-25(17-26)31(32,33)34)20-39-12-10-38(3)11-13-39/h5,7-9,14-19,21H,10-13,20H2,1-3H3,(H,37,41)

>  <InChIKey>
IUGBGEUCXVKGQK-UHFFFAOYSA-N

>  <SMILES>
CC(C)c1ccc(cc1C#Cc2cnc3n2ccnc3)C(=O)Nc4cc(cc(c4)C(F)(F)F)CN5CCN(CC5)C

$$$$
