3BFT_S2P_A_1009
  RCSB PDB08012018383D
Coordinates from PDB:3BFT:A:1009 Model:1 without hydrogens
 12 12  0  0  0  0            999 V2000
  -11.6930   27.1040   40.2530   C 0  0  0  0  0  0  0  0  0  0  0  0
  -11.5500   25.9660   41.2070   C 0  0  0  0  0  0  0  0  0  0  0  0
  -11.2920   24.8240   40.5660   N 0  0  0  0  0  0  0  0  0  0  0  0
  -11.6940   26.1750   42.7000   C 0  0  0  0  0  0  0  0  0  0  0  0
  -10.3180   26.4110   43.3730   C 0  0  0  0  0  0  0  0  0  0  0  0
  -11.9350   28.2150   40.7660   O 0  0  0  0  0  0  0  0  0  0  0  0
  -11.2740   27.4990   45.3770   O 0  0  0  0  0  0  0  0  0  0  0  0
  -10.4690   26.6390   44.9170   C 0  0  0  0  0  0  0  0  0  0  0  0
   -9.6990   25.8490   45.5380   O 0  0  0  0  0  0  0  0  0  0  0  0
  -11.5470   26.7820   38.9290   N 0  0  0  0  0  0  0  0  0  0  0  0
   -9.2920   25.2620   43.1590   N 0  0  0  0  0  0  0  0  0  0  0  0
  -11.2190   25.0550   38.8120   S 0  0  0  0  0  0  0  0  0  0  0  0
  1  2  1  0  0  0  0
  1  6  1  0  0  0  0
  1 10  2  0  0  0  0
  2  3  2  0  0  0  0
  2  4  1  0  0  0  0
  3 12  1  0  0  0  0
  4  5  1  0  0  0  0
  5  8  1  0  0  0  0
  5 11  1  0  0  0  0
  7  8  2  0  0  0  0
  8  9  1  0  0  0  0
 10 12  1  0  0  0  0
M  END
>  <InstanceId>
3BFT_S2P_A_1009

>  <ChemCompId>
S2P

>  <PdbId>
3BFT

>  <ChainId>
A

>  <ResidueNumber>
1009

>  <InsertionCode>


>  <Model>
1

>  <AltIds>


>  <MissingHeavyAtoms>
0

>  <ObservedFormula>
C5 N3 O3 S

>  <Name>
(2S)-2-amino-3-(4-hydroxy-1,2,5-thiadiazol-3-yl)propanoic acid

>  <SystematicName>
(2S)-2-amino-3-(4-hydroxy-1,2,5-thiadiazol-3-yl)propanoic acid

>  <Synonyms>


>  <Type>
L-peptide linking

>  <Formula>
C5 H7 N3 O3 S

>  <MolecularWeight>
189.192

>  <ModifiedDate>
2011-06-04

>  <Parent>
ALA

>  <OneLetterCode>
A

>  <SubcomponentList>


>  <AmbiguousFlag>
N

>  <InChI>
InChI=1S/C5H7N3O3S/c6-2(5(10)11)1-3-4(9)8-12-7-3/h2H,1,6H2,(H,8,9)(H,10,11)/t2-/m0/s1

>  <InChIKey>
SEVVPWOEIHLQGH-REOHCLBHSA-N

>  <SMILES>
C(c1c(nsn1)O)[C@@H](C(=O)O)N

$$$$
