4B3C_5H1_A_1351
  RCSB PDB08012021113D
Coordinates from PDB:4B3C:A:1351 Model:1 without hydrogens
 10 11  0  0  0  0            999 V2000
    9.1680   17.1980   23.6190   O 0  0  0  0  0  0  0  0  0  0  0  0
    9.6650   16.8520   22.4040   C 0  0  0  0  0  0  0  0  0  0  0  0
   10.3780   17.7850   21.6560   C 0  0  0  0  0  0  0  0  0  0  0  0
   10.8820   17.4280   20.4120   C 0  0  0  0  0  0  0  0  0  0  0  0
   10.6740   16.1380   19.9250   C 0  0  0  0  0  0  0  0  0  0  0  0
   11.0350   15.5370   18.7930   N 0  0  0  0  0  0  0  0  0  0  0  0
    9.4600   15.5630   21.9130   C 0  0  0  0  0  0  0  0  0  0  0  0
    9.9670   15.2100   20.6730   C 0  0  0  0  0  0  0  0  0  0  0  0
    9.9280   14.0830   19.9690   C 0  0  0  0  0  0  0  0  0  0  0  0
   10.5790   14.2850   18.8230   C 0  0  0  0  0  0  0  0  0  0  0  0
  2  1  1  0  0  0  0
  3  2  2  0  0  0  0
  7  2  1  0  0  0  0
  4  3  1  0  0  0  0
  5  4  2  0  0  0  0
  6  5  1  0  0  0  0
  5  8  1  0  0  0  0
  6 10  1  0  0  0  0
  8  7  2  0  0  0  0
  9  8  1  0  0  0  0
 10  9  2  0  0  0  0
M  END
>  <InstanceId>
4B3C_5H1_A_1351

>  <ChemCompId>
5H1

>  <PdbId>
4B3C

>  <ChainId>
A

>  <ResidueNumber>
1351

>  <InsertionCode>


>  <Model>
1

>  <AltIds>


>  <MissingHeavyAtoms>
0

>  <ObservedFormula>
C8 N O

>  <Name>
1H-indol-5-ol

>  <SystematicName>
1H-indol-5-ol

>  <Synonyms>
5-hydroxyindole

>  <Type>
NON-POLYMER

>  <Formula>
C8 H7 N O

>  <MolecularWeight>
133.147

>  <ModifiedDate>
2011-06-04

>  <Parent>


>  <OneLetterCode>


>  <SubcomponentList>


>  <AmbiguousFlag>
N

>  <InChI>
InChI=1S/C8H7NO/c10-7-1-2-8-6(5-7)3-4-9-8/h1-5,9-10H

>  <InChIKey>
LMIQERWZRIFWNZ-UHFFFAOYSA-N

>  <SMILES>
c1cc2c(cc[nH]2)cc1O

$$$$
