6H5X_FT8_A_709
  RCSB PDB08022004553D
Coordinates from PDB:6H5X:A:709 Model:1 without hydrogens
 27 29  0  0  0  0            999 V2000
  -54.0320   96.4740   22.5470   C 0  0  0  0  0  0  0  0  0  0  0  0
  -51.4480   95.4850   20.3170   C 0  0  0  0  0  0  0  0  0  0  0  0
  -51.8110   94.1280   25.9270   C 0  0  0  0  0  0  0  0  0  0  0  0
  -51.1840   93.4040   27.0930   C 0  0  0  0  0  0  0  0  0  0  0  0
  -50.8400   91.9740   26.6970   C 0  0  0  0  0  0  0  0  0  0  0  0
  -49.8040   91.3180   27.6140   C 0  0  0  0  0  0  0  0  0  0  0  0
  -48.5070   91.8050   27.6900   C 0  0  0  0  0  0  0  0  0  0  0  0
  -47.5880   91.1870   28.5270   C 0  0  0  0  0  0  0  0  0  0  0  0
  -47.9620   90.0850   29.2760   C 0  0  0  0  0  0  0  0  0  0  0  0
  -49.2570   89.5980   29.1930   C 0  0  0  0  0  0  0  0  0  0  0  0
  -50.1760   90.2140   28.3600   C 0  0  0  0  0  0  0  0  0  0  0  0
  -51.7880   95.4210   23.2410   C 0  0  0  0  0  0  0  0  0  0  0  0
  -51.9490   96.1700   24.5570   C 0  0  0  0  0  0  0  0  0  0  0  0
  -51.4150   97.6020   24.5460   C 0  0  0  0  0  0  0  0  0  0  0  0
  -51.7950   98.3830   23.2910   C 0  0  0  0  0  0  0  0  0  0  0  0
  -55.1340   96.4340   21.4840   C 0  0  0  0  0  0  0  0  0  0  0  0
  -54.6040   96.2380   20.1300   C 0  0  0  0  0  0  0  0  0  0  0  0
  -53.8660   94.9690   19.9880   C 0  0  0  0  0  0  0  0  0  0  0  0
  -52.6800   94.8820   20.9460   C 0  0  0  0  0  0  0  0  0  0  0  0
  -52.8310   95.5870   22.2650   N 0  0  0  0  0  0  0  0  0  0  0  0
  -51.3130   95.4400   25.6430   N 0  0  0  0  0  0  0  0  0  0  0  0
  -51.1200   96.6860   20.5510   O 0  0  0  0  0  0  0  0  0  0  0  0
  -50.7220   94.7840   19.5640   O 0  0  0  0  0  0  0  0  0  0  0  0
  -50.8690   94.7230   23.0010   O 0  0  0  0  0  0  0  0  0  0  0  0
  -52.7030   93.6460   25.3140   O 0  0  0  0  0  0  0  0  0  0  0  0
  -53.5480   98.2350   22.8280   S 0  0  0  0  0  0  0  0  0  0  0  0
  -52.5140   93.5480   28.3230   S 0  0  0  0  0  0  0  0  0  0  0  0
 23  2  2  0  0  0  0
 18 17  1  0  0  0  0
 18 19  1  0  0  0  0
 17 16  1  0  0  0  0
  2 22  1  0  0  0  0
  2 19  1  0  0  0  0
 19 20  1  0  0  0  0
 16  1  1  0  0  0  0
 20  1  1  0  0  0  0
 20 12  1  0  0  0  0
  1 26  1  0  0  0  0
 26 15  1  0  0  0  0
 24 12  2  0  0  0  0
 12 13  1  0  0  0  0
 15 14  1  0  0  0  0
 14 13  1  0  0  0  0
 13 21  1  0  0  0  0
 25  3  2  0  0  0  0
 21  3  1  0  0  0  0
  3  4  1  0  0  0  0
  5  4  1  0  0  0  0
  5  6  1  0  0  0  0
  4 27  1  0  0  0  0
  6  7  2  0  0  0  0
  6 11  1  0  0  0  0
  7  8  1  0  0  0  0
 11 10  2  0  0  0  0
  8  9  2  0  0  0  0
 10  9  1  0  0  0  0
M  END
>  <InstanceId>
6H5X_FT8_A_709

>  <ChemCompId>
FT8

>  <PdbId>
6H5X

>  <ChainId>
A

>  <ResidueNumber>
709

>  <InsertionCode>


>  <Model>
1

>  <AltIds>


>  <MissingHeavyAtoms>
0

>  <ObservedFormula>
C19 N2 O4 S2

>  <Name>
Omapatrilat

>  <SystematicName>
(4~{S},7~{S},10~{a}~{S})-5-oxidanylidene-4-[[(2~{S})-3-phenyl-2-sulfanyl-propanoyl]amino]-2,3,4,7,8,9,10,10~{a}-octahydropyrido[2,1-b][1,3]thiazepine-7-carboxylic acid

>  <Synonyms>


>  <Type>
NON-POLYMER

>  <Formula>
C19 H24 N2 O4 S2

>  <MolecularWeight>
408.535

>  <ModifiedDate>
2018-11-02

>  <Parent>


>  <OneLetterCode>


>  <SubcomponentList>


>  <AmbiguousFlag>
N

>  <InChI>
InChI=1S/C19H24N2O4S2/c22-17(15(26)11-12-5-2-1-3-6-12)20-13-9-10-27-16-8-4-7-14(19(24)25)21(16)18(13)23/h1-3,5-6,13-16,26H,4,7-11H2,(H,20,22)(H,24,25)/t13-,14-,15-,16-/m0/s1

>  <InChIKey>
LVRLSYPNFFBYCZ-VGWMRTNUSA-N

>  <SMILES>
c1ccc(cc1)C[C@@H](C(=O)N[C@H]2CCS[C@H]3CCC[C@H](N3C2=O)C(=O)O)S

$$$$
