2DRC_MTX_A_161
  RCSB PDB08012016513D
Coordinates from PDB:2DRC:A:161 Model:1 without hydrogens
 33 35  0  0  0  0            999 V2000
   23.0230   58.4460   24.3200   N 0  0  0  0  0  0  0  0  0  0  0  0
   23.6230   58.0070   23.1830   C 0  0  0  0  0  0  0  0  0  0  0  0
   24.8920   57.9810   23.1230   N 0  0  0  0  0  0  0  0  0  0  0  0
   22.8720   57.6110   22.1630   N 0  0  0  0  0  0  0  0  0  0  0  0
   21.4910   57.5980   22.0130   C 0  0  0  0  0  0  0  0  0  0  0  0
   20.8320   57.1650   20.9160   N 0  0  0  0  0  0  0  0  0  0  0  0
   20.8840   58.1090   23.2530   C 0  0  0  0  0  0  0  0  0  0  0  0
   19.6330   58.2890   23.1960   N 0  0  0  0  0  0  0  0  0  0  0  0
   19.0030   58.7430   24.3000   C 0  0  0  0  0  0  0  0  0  0  0  0
   19.7690   59.0280   25.5170   C 0  0  0  0  0  0  0  0  0  0  0  0
   21.1540   58.8710   25.4730   N 0  0  0  0  0  0  0  0  0  0  0  0
   21.6290   58.4210   24.2970   C 0  0  0  0  0  0  0  0  0  0  0  0
   17.5280   58.9390   24.2540   C 0  0  0  0  0  0  0  0  0  0  0  0
   16.9500   59.7110   25.4790   N 0  0  0  0  0  0  0  0  0  0  0  0
   16.0930   59.0840   26.6230   C 0  0  0  0  0  0  0  0  0  0  0  0
   18.0040   63.8460   25.7430   C 0  0  0  0  0  0  0  0  0  0  0  0
   17.2420   63.2360   26.6640   C 0  0  0  0  0  0  0  0  0  0  0  0
   16.8580   61.8160   26.5780   C 0  0  0  0  0  0  0  0  0  0  0  0
   17.3140   61.1250   25.5220   C 0  0  0  0  0  0  0  0  0  0  0  0
   18.1730   61.8040   24.5010   C 0  0  0  0  0  0  0  0  0  0  0  0
   18.4990   63.0280   24.5970   C 0  0  0  0  0  0  0  0  0  0  0  0
   18.3240   65.3520   25.8220   C 0  0  0  0  0  0  0  0  0  0  0  0
   17.5880   66.0760   26.5760   O 0  0  0  0  0  0  0  0  0  0  0  0
   19.2960   65.8690   25.0640   N 0  0  0  0  0  0  0  0  0  0  0  0
   19.7260   67.3230   25.0800   C 0  0  0  0  0  0  0  0  0  0  0  0
   19.9910   67.4480   23.5680   C 0  0  0  0  0  0  0  0  0  0  0  0
   20.3360   66.4020   22.7980   O 0  0  0  0  0  0  0  0  0  0  0  0
   19.8720   68.5830   23.0950   O 0  0  0  0  0  0  0  0  0  0  0  0
   21.0650   67.5020   25.8280   C 0  0  0  0  0  0  0  0  0  0  0  0
   21.0490   67.3830   27.3470   C 0  0  0  0  0  0  0  0  0  0  0  0
   19.8620   68.4730   27.9400   C 0  0  0  0  0  0  0  0  0  0  0  0
   19.3260   68.1540   29.3380   O 0  0  0  0  0  0  0  0  0  0  0  0
   19.4570   69.3850   27.3180   O 0  0  0  0  0  0  0  0  0  0  0  0
  1  2  2  0  0  0  0
  1 12  1  0  0  0  0
  2  3  1  0  0  0  0
  2  4  1  0  0  0  0
  4  5  2  0  0  0  0
  5  6  1  0  0  0  0
  5  7  1  0  0  0  0
  7  8  1  0  0  0  0
  7 12  2  0  0  0  0
  8  9  2  0  0  0  0
  9 10  1  0  0  0  0
  9 13  1  0  0  0  0
 10 11  2  0  0  0  0
 11 12  1  0  0  0  0
 13 14  1  0  0  0  0
 14 15  1  0  0  0  0
 14 19  1  0  0  0  0
 16 17  2  0  0  0  0
 16 21  1  0  0  0  0
 16 22  1  0  0  0  0
 17 18  1  0  0  0  0
 18 19  2  0  0  0  0
 19 20  1  0  0  0  0
 20 21  2  0  0  0  0
 22 23  2  0  0  0  0
 22 24  1  0  0  0  0
 24 25  1  0  0  0  0
 25 26  1  0  0  0  0
 25 29  1  0  0  0  0
 26 27  2  0  0  0  0
 26 28  1  0  0  0  0
 29 30  1  0  0  0  0
 30 31  1  0  0  0  0
 31 32  2  0  0  0  0
 31 33  1  0  0  0  0
M  END
>  <InstanceId>
2DRC_MTX_A_161

>  <ChemCompId>
MTX

>  <PdbId>
2DRC

>  <ChainId>
A

>  <ResidueNumber>
161

>  <InsertionCode>


>  <Model>
1

>  <AltIds>


>  <MissingHeavyAtoms>
0

>  <ObservedFormula>
C20 N8 O5

>  <Name>
METHOTREXATE

>  <SystematicName>
(2S)-2-[[4-[(2,4-diaminopteridin-6-yl)methyl-methyl-amino]phenyl]carbonylamino]pentanedioic acid

>  <Synonyms>


>  <Type>
NON-POLYMER

>  <Formula>
C20 H22 N8 O5

>  <MolecularWeight>
454.439

>  <ModifiedDate>
2011-06-04

>  <Parent>


>  <OneLetterCode>


>  <SubcomponentList>


>  <AmbiguousFlag>
N

>  <InChI>
InChI=1S/C20H22N8O5/c1-28(9-11-8-23-17-15(24-11)16(21)26-20(22)27-17)12-4-2-10(3-5-12)18(31)25-13(19(32)33)6-7-14(29)30/h2-5,8,13H,6-7,9H2,1H3,(H,25,31)(H,29,30)(H,32,33)(H4,21,22,23,26,27)/t13-/m0/s1

>  <InChIKey>
FBOZXECLQNJBKD-ZDUSSCGKSA-N

>  <SMILES>
CN(Cc1cnc2c(n1)c(nc(n2)N)N)c3ccc(cc3)C(=O)N[C@@H](CCC(=O)O)C(=O)O

$$$$
