2ZDM_46U_A_501
  RCSB PDB08012018273D
Coordinates from PDB:2ZDM:A:501 Model:1 without hydrogens
 28 30  0  0  0  0            999 V2000
  -26.6630    1.1520   17.1460   O 0  0  0  0  0  0  0  0  0  0  0  0
  -27.8210    1.2100   16.7650   C 0  0  0  0  0  0  0  0  0  0  0  0
  -28.7790    1.6750   17.8730   C 0  0  0  0  0  0  0  0  0  0  0  0
  -29.5470    0.7560   18.6000   O 0  0  0  0  0  0  0  0  0  0  0  0
  -29.3230   -0.6090   18.7210   C 0  0  0  0  0  0  0  0  0  0  0  0
  -30.5900   -1.4470   18.7640   C 0  0  0  0  0  0  0  0  0  0  0  0
  -30.4370   -2.9300   18.9920   C 0  0  0  0  0  0  0  0  0  0  0  0
  -29.7920   -2.9940   20.3180   C 0  0  0  0  0  0  0  0  0  0  0  0
  -28.4840   -2.2660   20.3640   C 0  0  0  0  0  0  0  0  0  0  0  0
  -28.6890   -0.8300   20.0270   C 0  0  0  0  0  0  0  0  0  0  0  0
  -28.2210    0.9450   15.5780   N 0  0  0  0  0  0  0  0  0  0  0  0
  -27.1950    0.5070   14.6360   C 0  0  0  0  0  0  0  0  0  0  0  0
  -26.0800    1.5080   14.3320   C 0  0  0  0  0  0  0  0  0  0  0  0
  -26.2290    2.7270   14.4250   O 0  0  0  0  0  0  0  0  0  0  0  0
  -27.8160    0.2810   13.2540   C 0  0  0  0  0  0  0  0  0  0  0  0
  -29.2250    0.8260   13.4310   C 0  0  0  0  0  0  0  0  0  0  0  0
  -29.5640    0.8420   14.9210   C 0  0  0  0  0  0  0  0  0  0  0  0
  -24.8470    1.0860   13.9490   N 0  0  0  0  0  0  0  0  0  0  0  0
  -23.6840    1.9440   13.6630   C 0  0  0  0  0  0  0  0  0  0  0  0
  -22.5750    1.7540   14.6850   C 0  0  0  0  0  0  0  0  0  0  0  0
  -22.7000    2.0540   16.0500   C 0  0  0  0  0  0  0  0  0  0  0  0
  -21.6540    1.8630   16.9540   C 0  0  0  0  0  0  0  0  0  0  0  0
  -20.4690    1.3680   16.4970   C 0  0  0  0  0  0  0  0  0  0  0  0
  -19.3280    1.1530   17.4440   C 0  0  0  0  0  0  0  0  0  0  0  0
  -18.5040    0.1500   17.2140   N 0  0  0  0  0  0  0  0  0  0  0  0
  -19.1320    1.9360   18.4910   N 0  0  0  0  0  0  0  0  0  0  0  0
  -20.3190    1.0630   15.1510   C 0  0  0  0  0  0  0  0  0  0  0  0
  -21.3520    1.2480   14.2390   C 0  0  0  0  0  0  0  0  0  0  0  0
  1  2  2  0  0  0  0
  2  3  1  0  0  0  0
  2 11  1  0  0  0  0
  3  4  1  0  0  0  0
  4  5  1  0  0  0  0
  5  6  1  0  0  0  0
  5 10  1  0  0  0  0
  6  7  1  0  0  0  0
  7  8  1  0  0  0  0
  8  9  1  0  0  0  0
  9 10  1  0  0  0  0
 11 12  1  0  0  0  0
 11 17  1  0  0  0  0
 12 15  1  0  0  0  0
 12 13  1  0  0  0  0
 15 16  1  0  0  0  0
 16 17  1  0  0  0  0
 13 14  2  0  0  0  0
 13 18  1  0  0  0  0
 18 19  1  0  0  0  0
 19 20  1  0  0  0  0
 20 28  2  0  0  0  0
 20 21  1  0  0  0  0
 28 27  1  0  0  0  0
 27 23  2  0  0  0  0
 23 24  1  0  0  0  0
 23 22  1  0  0  0  0
 24 25  2  0  0  0  0
 24 26  1  0  0  0  0
 22 21  2  0  0  0  0
M  END
>  <InstanceId>
2ZDM_46U_A_501

>  <ChemCompId>
46U

>  <PdbId>
2ZDM

>  <ChainId>
A

>  <ResidueNumber>
501

>  <InsertionCode>


>  <Model>
1

>  <AltIds>


>  <MissingHeavyAtoms>
0

>  <ObservedFormula>
C21 N4 O3

>  <Name>
(S)-N-(4-carbamimidoylbenzyl)-1-(2-(cyclohexyloxy)ethanoyl)pyrrolidine-2-carboxamide

>  <SystematicName>
(2S)-N-[(4-carbamimidoylphenyl)methyl]-1-(2-cyclohexyloxyethanoyl)pyrrolidine-2-carboxamide

>  <Synonyms>


>  <Type>
peptide-like

>  <Formula>
C21 H30 N4 O3

>  <MolecularWeight>
386.488

>  <ModifiedDate>
2012-01-05

>  <Parent>


>  <OneLetterCode>


>  <SubcomponentList>
01Z PRO 00S

>  <AmbiguousFlag>
N

>  <InChI>
InChI=1S/C21H30N4O3/c22-20(23)16-10-8-15(9-11-16)13-24-21(27)18-7-4-12-25(18)19(26)14-28-17-5-2-1-3-6-17/h8-11,17-18H,1-7,12-14H2,(H3,22,23)(H,24,27)/t18-/m0/s1

>  <InChIKey>
IWPMQJKXKKKSEY-SFHVURJKSA-N

>  <SMILES>
[H]/N=C(/c1ccc(cc1)CNC(=O)[C@@H]2CCCN2C(=O)COC3CCCCC3)\N

$$$$
