1DUD_DUD_A_153
  RCSB PDB08012014473D
Coordinates from PDB:1DUD:A:153 Model:1 without hydrogens
 24 25  0  0  0  0            999 V2000
   -5.3450   37.0560   33.0000   N 0  0  0  0  0  0  0  0  0  0  0  0
   -4.2650   36.3950   32.4540   C 0  0  0  0  0  0  0  0  0  0  0  0
   -3.4110   37.1320   31.7020   N 0  0  0  0  0  0  0  0  0  0  0  0
   -3.5560   38.4800   31.4050   C 0  0  0  0  0  0  0  0  0  0  0  0
   -4.6860   39.0980   32.0090   C 0  0  0  0  0  0  0  0  0  0  0  0
   -5.5340   38.3970   32.7830   C 0  0  0  0  0  0  0  0  0  0  0  0
   -4.0260   35.1870   32.6250   O 0  0  0  0  0  0  0  0  0  0  0  0
   -2.6970   39.0530   30.7450   O 0  0  0  0  0  0  0  0  0  0  0  0
   -6.3230   36.2960   33.8620   C 0  0  0  0  0  0  0  0  0  0  0  0
   -6.4360   36.8710   35.2620   C 0  0  0  0  0  0  0  0  0  0  0  0
   -7.7800   37.5500   35.3380   C 0  0  0  0  0  0  0  0  0  0  0  0
   -8.6160   36.8480   34.2660   C 0  0  0  0  0  0  0  0  0  0  0  0
   -7.6520   36.3970   33.2700   O 0  0  0  0  0  0  0  0  0  0  0  0
   -8.3520   37.3170   36.6090   O 0  0  0  0  0  0  0  0  0  0  0  0
   -9.6260   37.8250   33.6480   C 0  0  0  0  0  0  0  0  0  0  0  0
   -8.9810   39.0360   33.1330   O 0  0  0  0  0  0  0  0  0  0  0  0
   -9.6540   40.5010   32.9690   P 0  0  0  0  0  0  0  0  0  0  0  0
  -10.7200   40.6150   33.9840   O 0  0  0  0  0  0  0  0  0  0  0  0
   -8.6160   41.5830   32.8710   O 0  0  0  0  0  0  0  0  0  0  0  0
  -10.4620   40.5340   31.5670   O 0  0  0  0  0  0  0  0  0  0  0  0
  -11.7520   39.7940   30.9000   P 0  0  0  0  0  0  0  0  0  0  0  0
  -11.4910   38.3390   30.7070   O 0  0  0  0  0  0  0  0  0  0  0  0
  -12.0480   40.6250   29.7090   O 0  0  0  0  0  0  0  0  0  0  0  0
  -13.0120   40.0010   31.9780   O 0  0  0  0  0  0  0  0  0  0  0  0
  1  2  1  0  0  0  0
  1  6  1  0  0  0  0
  1  9  1  0  0  0  0
  2  3  1  0  0  0  0
  2  7  2  0  0  0  0
  3  4  1  0  0  0  0
  4  5  1  0  0  0  0
  4  8  2  0  0  0  0
  5  6  2  0  0  0  0
  9 10  1  0  0  0  0
  9 13  1  0  0  0  0
 10 11  1  0  0  0  0
 11 12  1  0  0  0  0
 11 14  1  0  0  0  0
 12 13  1  0  0  0  0
 12 15  1  0  0  0  0
 15 16  1  0  0  0  0
 16 17  1  0  0  0  0
 17 18  2  0  0  0  0
 17 19  1  0  0  0  0
 17 20  1  0  0  0  0
 20 21  1  0  0  0  0
 21 22  2  0  0  0  0
 21 23  1  0  0  0  0
 21 24  1  0  0  0  0
M  END
>  <InstanceId>
1DUD_DUD_A_153

>  <ChemCompId>
DUD

>  <PdbId>
1DUD

>  <ChainId>
A

>  <ResidueNumber>
153

>  <InsertionCode>


>  <Model>
1

>  <AltIds>


>  <MissingHeavyAtoms>
0

>  <ObservedFormula>
C9 N2 O11 P2

>  <Name>
DEOXYURIDINE-5'-DIPHOSPHATE

>  <SystematicName>
[(2R,3S,5R)-5-(2,4-dioxopyrimidin-1-yl)-3-hydroxy-oxolan-2-yl]methyl phosphono hydrogen phosphate

>  <Synonyms>


>  <Type>
NON-POLYMER

>  <Formula>
C9 H14 N2 O11 P2

>  <MolecularWeight>
388.162

>  <ModifiedDate>
2011-06-04

>  <Parent>


>  <OneLetterCode>


>  <SubcomponentList>


>  <AmbiguousFlag>
N

>  <InChI>
InChI=1S/C9H14N2O11P2/c12-5-3-8(11-2-1-7(13)10-9(11)14)21-6(5)4-20-24(18,19)22-23(15,16)17/h1-2,5-6,8,12H,3-4H2,(H,18,19)(H,10,13,14)(H2,15,16,17)/t5-,6+,8+/m0/s1

>  <InChIKey>
QHWZTVCCBMIIKE-SHYZEUOFSA-N

>  <SMILES>
C1[C@@H]([C@H](O[C@H]1N2C=CC(=O)NC2=O)CO[P@](=O)(O)OP(=O)(O)O)O

$$$$
