6HTG_T61_A_504
  RCSB PDB08022005023D
Coordinates from PDB:6HTG:A:504 Model:1 without hydrogens
 20 21  0  0  0  0            999 V2000
   46.9100   31.7060   85.0700   N 0  0  0  0  0  0  0  0  0  0  0  0
   46.6990   32.7090   85.9140   C 0  0  0  0  0  0  0  0  0  0  0  0
   47.2130   32.7350   87.0290   O 0  0  0  0  0  0  0  0  0  0  0  0
   45.7610   33.7890   85.4640   C 0  0  0  0  0  0  0  0  0  0  0  0
   43.0670   38.9700   91.4020   C 0  0  0  0  0  0  0  0  0  0  0  0
   44.3440   39.2970   91.0080   C 0  0  0  0  0  0  0  0  0  0  0  0
   44.8670   38.7770   89.8400   C 0  0  0  0  0  0  0  0  0  0  0  0
   45.4790   34.8700   86.2970   C 0  0  0  0  0  0  0  0  0  0  0  0
   45.0580   33.6540   84.2710   C 0  0  0  0  0  0  0  0  0  0  0  0
   44.0340   34.5310   83.9590   C 0  0  0  0  0  0  0  0  0  0  0  0
   43.7190   35.5570   84.8300   C 0  0  0  0  0  0  0  0  0  0  0  0
   44.4580   35.7750   85.9900   C 0  0  0  0  0  0  0  0  0  0  0  0
   44.8270   37.2440   87.9230   C 0  0  0  0  0  0  0  0  0  0  0  0
   44.1110   37.9130   89.0500   C 0  0  0  0  0  0  0  0  0  0  0  0
   42.8110   37.6180   89.4390   C 0  0  0  0  0  0  0  0  0  0  0  0
   42.3000   38.1370   90.6160   C 0  0  0  0  0  0  0  0  0  0  0  0
   44.0910   36.8350   86.8660   N 0  0  0  0  0  0  0  0  0  0  0  0
   47.6340   30.5960   85.5040   O 0  0  0  0  0  0  0  0  0  0  0  0
   46.0440   37.1350   87.9530   O 0  0  0  0  0  0  0  0  0  0  0  0
   42.3630   36.5750   84.4680  Cl 0  0  0  0  0  0  0  0  0  0  0  0
 10  9  2  0  0  0  0
 10 11  1  0  0  0  0
  9  4  1  0  0  0  0
 20 11  1  0  0  0  0
 11 12  2  0  0  0  0
  1 18  1  0  0  0  0
  1  2  1  0  0  0  0
  4  2  1  0  0  0  0
  4  8  2  0  0  0  0
  2  3  2  0  0  0  0
 12  8  1  0  0  0  0
 12 17  1  0  0  0  0
 17 13  1  0  0  0  0
 13 19  2  0  0  0  0
 13 14  1  0  0  0  0
 14 15  2  0  0  0  0
 14  7  1  0  0  0  0
 15 16  1  0  0  0  0
  7  6  2  0  0  0  0
 16  5  2  0  0  0  0
  6  5  1  0  0  0  0
M  END
>  <InstanceId>
6HTG_T61_A_504

>  <ChemCompId>
T61

>  <PdbId>
6HTG

>  <ChainId>
A

>  <ResidueNumber>
504

>  <InsertionCode>


>  <Model>
1

>  <AltIds>


>  <MissingHeavyAtoms>
0

>  <ObservedFormula>
C14 N2 O3 Cl

>  <Name>
3-benzamido-4-chloranyl-~{N}-oxidanyl-benzamide

>  <SystematicName>
3-benzamido-4-chloranyl-~{N}-oxidanyl-benzamide

>  <Synonyms>


>  <Type>
NON-POLYMER

>  <Formula>
C14 H11 Cl N2 O3

>  <MolecularWeight>
290.702

>  <ModifiedDate>
2018-10-26

>  <Parent>


>  <OneLetterCode>


>  <SubcomponentList>


>  <AmbiguousFlag>
N

>  <InChI>
InChI=1S/C14H11ClN2O3/c15-11-7-6-10(14(19)17-20)8-12(11)16-13(18)9-4-2-1-3-5-9/h1-8,20H,(H,16,18)(H,17,19)

>  <InChIKey>
BBBOKCZDRCMPOZ-UHFFFAOYSA-N

>  <SMILES>
c1ccc(cc1)C(=O)Nc2cc(ccc2Cl)C(=O)NO

$$$$
