4Q4S_S98_A_406
  RCSB PDB08012022573D
Coordinates from PDB:4Q4S:A:406 Model:1 without hydrogens
 17 19  0  0  0  0            999 V2000
  -18.9830   18.7670  -18.1450   N 0  0  0  0  0  0  0  0  0  0  0  0
  -18.3250   18.3580  -19.2890   C 0  0  0  0  0  0  0  0  0  0  0  0
  -17.0760   17.9040  -18.8610   C 0  0  0  0  0  0  0  0  0  0  0  0
  -16.9710   18.0490  -17.4770   N 0  0  0  0  0  0  0  0  0  0  0  0
  -18.1310   18.5690  -17.1130   C 0  0  0  0  0  0  0  0  0  0  0  0
  -18.4310   18.8960  -15.8590   N 0  0  0  0  0  0  0  0  0  0  0  0
  -17.5260   18.6970  -14.7430   C 0  0  0  0  0  0  0  0  0  0  0  0
  -16.1380   17.4680  -19.8020   C 0  0  0  0  0  0  0  0  0  0  0  0
  -16.4430   17.5480  -21.1690   C 0  0  0  0  0  0  0  0  0  0  0  0
  -17.6980   18.0280  -21.5840   C 0  0  0  0  0  0  0  0  0  0  0  0
  -17.9490   18.2060  -23.0220   C 0  0  0  0  0  0  0  0  0  0  0  0
  -19.0100   18.6110  -23.4870   O 0  0  0  0  0  0  0  0  0  0  0  0
  -16.8870   17.8880  -23.8350   N 0  0  0  0  0  0  0  0  0  0  0  0
  -15.6910   17.4070  -23.3740   C 0  0  0  0  0  0  0  0  0  0  0  0
  -14.7500   17.1280  -24.2760   N 0  0  0  0  0  0  0  0  0  0  0  0
  -15.4440   17.2180  -22.0800   N 0  0  0  0  0  0  0  0  0  0  0  0
  -18.6430   18.4020  -20.6330   C 0  0  0  0  0  0  0  0  0  0  0  0
  1  2  1  0  0  0  0
  1  5  1  0  0  0  0
  2  3  2  0  0  0  0
  2 17  1  0  0  0  0
  3  4  1  0  0  0  0
  3  8  1  0  0  0  0
  4  5  2  0  0  0  0
  5  6  1  0  0  0  0
  6  7  1  0  0  0  0
  8  9  2  0  0  0  0
  9 10  1  0  0  0  0
  9 16  1  0  0  0  0
 10 11  1  0  0  0  0
 10 17  2  0  0  0  0
 11 12  2  0  0  0  0
 11 13  1  0  0  0  0
 13 14  1  0  0  0  0
 14 15  1  0  0  0  0
 14 16  2  0  0  0  0
M  END
>  <InstanceId>
4Q4S_S98_A_406

>  <ChemCompId>
S98

>  <PdbId>
4Q4S

>  <ChainId>
A

>  <ResidueNumber>
406

>  <InsertionCode>


>  <Model>
1

>  <AltIds>


>  <MissingHeavyAtoms>
5

>  <ObservedFormula>
C10 N6 O

>  <Name>
6-amino-2-[(thiophen-2-ylmethyl)amino]-1,7-dihydro-8H-imidazo[4,5-g]quinazolin-8-one

>  <SystematicName>
6-amino-2-(thiophen-2-ylmethylamino)-1,7-dihydroimidazo[5,4-g]quinazolin-8-one

>  <Synonyms>
1-(2-thienyl)methyl-2-amino-lin-Benzogunaine

>  <Type>
NON-POLYMER

>  <Formula>
C14 H12 N6 O S

>  <MolecularWeight>
312.35

>  <ModifiedDate>
2020-06-17

>  <Parent>


>  <OneLetterCode>


>  <SubcomponentList>


>  <AmbiguousFlag>
N

>  <InChI>
InChI=1S/C14H12N6OS/c15-13-17-9-5-11-10(4-8(9)12(21)20-13)18-14(19-11)16-6-7-2-1-3-22-7/h1-5H,6H2,(H2,16,18,19)(H3,15,17,20,21)

>  <InChIKey>
IQKMJWDYMFWZRF-UHFFFAOYSA-N

>  <SMILES>
c1cc(sc1)CNc2[nH]c3cc4c(cc3n2)N=C(NC4=O)N

$$$$
