6F90_MVL_A_802
  RCSB PDB08022004373D
Coordinates from PDB:6F90:A:802 Model:1 without hydrogens
 14 15  0  0  0  0            999 V2000
   22.0760  125.0960   -9.4950   C 0  0  0  0  0  0  0  0  0  0  0  0
   21.1490  124.3490   -8.8670   N 0  0  0  0  0  0  0  0  0  0  0  0
   22.9560  123.1250  -10.7660   C 0  0  0  0  0  0  0  0  0  0  0  0
   22.1330  122.3130   -9.7610   C 0  0  0  0  0  0  0  0  0  0  0  0
   20.8400  122.9670   -9.2730   C 0  0  0  0  0  0  0  0  0  0  0  0
   20.2320  122.1880   -8.1210   C 0  0  0  0  0  0  0  0  0  0  0  0
   21.2240  126.3050   -7.8950   C 0  0  0  0  0  0  0  0  0  0  0  0
   20.6110  125.0700   -7.8730   C 0  0  0  0  0  0  0  0  0  0  0  0
   22.1260  126.2950   -8.9080   N 0  0  0  0  0  0  0  0  0  0  0  0
   24.3290  122.7420  -10.6080   O 0  0  0  0  0  0  0  0  0  0  0  0
   24.1970  125.2290  -10.6750   O 0  0  0  0  0  0  0  0  0  0  0  0
   21.7800  121.0830  -10.3990   O 0  0  0  0  0  0  0  0  0  0  0  0
   22.8780  124.6550  -10.6710   C 0  0  0  0  0  0  0  0  0  0  0  0
   21.0230  122.3170   -6.9380   O 0  0  0  0  0  0  0  0  0  0  0  0
  1  2  1  0  0  0  0
  1  9  2  0  0  0  0
  1 13  1  0  0  0  0
  2  5  1  0  0  0  0
  2  8  1  0  0  0  0
  3  4  1  0  0  0  0
  3 10  1  0  0  0  0
  3 13  1  0  0  0  0
  4  5  1  0  0  0  0
  4 12  1  0  0  0  0
  5  6  1  0  0  0  0
  6 14  1  0  0  0  0
  7  8  2  0  0  0  0
  7  9  1  0  0  0  0
 11 13  1  0  0  0  0
M  END
>  <InstanceId>
6F90_MVL_A_802

>  <ChemCompId>
MVL

>  <PdbId>
6F90

>  <ChainId>
A

>  <ResidueNumber>
802

>  <InsertionCode>


>  <Model>
1

>  <AltIds>


>  <MissingHeavyAtoms>
0

>  <ObservedFormula>
C8 N2 O4

>  <Name>
(5R,6R,7S,8R)-5-(HYDROXYMETHYL)-5,6,7,8-TETRAHYDROIMIDAZO[1,2-A]PYRIDINE-6,7,8-TRIOL

>  <SystematicName>
(5R,6R,7S,8R)-5-(hydroxymethyl)-5,6,7,8-tetrahydroimidazo[1,2-a]pyridine-6,7,8-triol

>  <Synonyms>
Mannoimidazole

>  <Type>
non-polymer

>  <Formula>
C8 H12 N2 O4

>  <MolecularWeight>
200.192

>  <ModifiedDate>
2020-06-17

>  <Parent>


>  <OneLetterCode>


>  <SubcomponentList>


>  <AmbiguousFlag>
N

>  <InChI>
InChI=1S/C8H12N2O4/c11-3-4-5(12)6(13)7(14)8-9-1-2-10(4)8/h1-2,4-7,11-14H,3H2/t4-,5-,6+,7+/m1/s1

>  <InChIKey>
RZRDQZQPTISYKY-JWXFUTCRSA-N

>  <SMILES>
c1cn2c(n1)[C@H]([C@H]([C@@H]([C@H]2CO)O)O)O

$$$$
