6FNI_DXH_A_1001
  RCSB PDB08022004413D
Coordinates from PDB:6FNI:A:1001 Model:1 without hydrogens
 37 41  0  0  0  0            999 V2000
   20.8770   96.0520    3.2010   C 0  0  0  0  0  0  0  0  0  0  0  0
   20.0500   95.1880    2.2560   C 0  0  0  0  0  0  0  0  0  0  0  0
   18.6520   95.2690    2.2920   C 0  0  0  0  0  0  0  0  0  0  0  0
   17.8910   94.4970    1.4420   C 0  0  0  0  0  0  0  0  0  0  0  0
   18.5100   93.6250    0.5700   C 0  0  0  0  0  0  0  0  0  0  0  0
   19.8990   93.5480    0.5110   C 0  0  0  0  0  0  0  0  0  0  0  0
   20.6660   94.3360    1.3730   C 0  0  0  0  0  0  0  0  0  0  0  0
   17.6120   92.7970   -0.3870   C 0  0  0  0  0  0  0  0  0  0  0  0
   16.4610   92.6910   -0.1690   O 0  0  0  0  0  0  0  0  0  0  0  0
   18.2700   92.2250   -1.5900   N 0  0  0  0  0  0  0  0  0  0  0  0
   17.5740   91.4870   -2.6250   C 0  0  0  0  0  0  0  0  0  0  0  0
   18.2430   90.5120   -3.3520   C 0  0  0  0  0  0  0  0  0  0  0  0
   17.5720   89.8420   -4.3670   C 0  0  0  0  0  0  0  0  0  0  0  0
   16.2630   90.1530   -4.6590   C 0  0  0  0  0  0  0  0  0  0  0  0
   15.6210   91.1320   -3.9560   C 0  0  0  0  0  0  0  0  0  0  0  0
   16.3030   91.8190   -2.9230   C 0  0  0  0  0  0  0  0  0  0  0  0
   14.1740   91.4870   -4.2580   C 0  0  0  0  0  0  0  0  0  0  0  0
   13.8340   90.9360   -5.4490   F 0  0  0  0  0  0  0  0  0  0  0  0
   14.0400   92.8460   -4.3190   F 0  0  0  0  0  0  0  0  0  0  0  0
   13.4030   91.0180   -3.2600   F 0  0  0  0  0  0  0  0  0  0  0  0
   17.9620   96.1890    3.2230   N 0  0  0  0  0  0  0  0  0  0  0  0
   17.6840   95.8010    4.6250   C 0  0  0  0  0  0  0  0  0  0  0  0
   18.1650   94.6830    5.1210   N 0  0  0  0  0  0  0  0  0  0  0  0
   17.9280   94.3120    6.3760   C 0  0  0  0  0  0  0  0  0  0  0  0
   17.1990   95.0610    7.2060   N 0  0  0  0  0  0  0  0  0  0  0  0
   16.6600   96.2400    6.7840   C 0  0  0  0  0  0  0  0  0  0  0  0
   16.8850   96.6350    5.4930   C 0  0  0  0  0  0  0  0  0  0  0  0
   16.2140   97.8740    5.3420   C 0  0  0  0  0  0  0  0  0  0  0  0
   15.6290   98.1710    6.5000   N 0  0  0  0  0  0  0  0  0  0  0  0
   15.8900   97.2000    7.3640   N 0  0  0  0  0  0  0  0  0  0  0  0
   15.4080   97.1900    8.7260   C 0  0  0  0  0  0  0  0  0  0  0  0
   18.5540   92.9720    6.8520   C 0  0  0  0  0  0  0  0  0  0  0  0
   19.1010   92.0890    5.8990   C 0  0  0  0  0  0  0  0  0  0  0  0
   19.6470   90.9520    6.2640   N 0  0  0  0  0  0  0  0  0  0  0  0
   19.6990   90.6060    7.5370   C 0  0  0  0  0  0  0  0  0  0  0  0
   19.1740   91.4390    8.5550   C 0  0  0  0  0  0  0  0  0  0  0  0
   18.5940   92.6450    8.2050   C 0  0  0  0  0  0  0  0  0  0  0  0
 29 28  2  0  0  0  0
 29 30  1  0  0  0  0
 31 30  1  0  0  0  0
 28 27  1  0  0  0  0
 30 26  1  0  0  0  0
 27 26  2  0  0  0  0
 27 22  1  0  0  0  0
 26 25  1  0  0  0  0
 22 21  1  0  0  0  0
 22 23  2  0  0  0  0
 21  3  1  0  0  0  0
 25 24  2  0  0  0  0
  1  2  1  0  0  0  0
 23 24  1  0  0  0  0
 24 32  1  0  0  0  0
  3  2  2  0  0  0  0
  3  4  1  0  0  0  0
  2  7  1  0  0  0  0
  4  5  2  0  0  0  0
 32 37  2  0  0  0  0
 32 33  1  0  0  0  0
 37 36  1  0  0  0  0
  7  6  2  0  0  0  0
  5  6  1  0  0  0  0
  5  8  1  0  0  0  0
 33 34  2  0  0  0  0
 36 35  2  0  0  0  0
  9  8  2  0  0  0  0
  8 10  1  0  0  0  0
 20 17  1  0  0  0  0
 34 35  1  0  0  0  0
 10 11  1  0  0  0  0
 16 11  2  0  0  0  0
 16 15  1  0  0  0  0
 17 18  1  0  0  0  0
 17 19  1  0  0  0  0
 17 15  1  0  0  0  0
 11 12  1  0  0  0  0
 15 14  2  0  0  0  0
 12 13  2  0  0  0  0
 14 13  1  0  0  0  0
M  END
>  <InstanceId>
6FNI_DXH_A_1001

>  <ChemCompId>
DXH

>  <PdbId>
6FNI

>  <ChainId>
A

>  <ResidueNumber>
1001

>  <InsertionCode>


>  <Model>
1

>  <AltIds>


>  <MissingHeavyAtoms>
0

>  <ObservedFormula>
C26 N7 O F3

>  <Name>
4-methyl-3-[(1-methyl-6-pyridin-3-yl-pyrazolo[3,4-d]pyrimidin-4-yl)amino]-~{N}-[3-(trifluoromethyl)phenyl]benzamide

>  <SystematicName>
4-methyl-3-[(1-methyl-6-pyridin-3-yl-pyrazolo[3,4-d]pyrimidin-4-yl)amino]-~{N}-[3-(trifluoromethyl)phenyl]benzamide

>  <Synonyms>


>  <Type>
NON-POLYMER

>  <Formula>
C26 H20 F3 N7 O

>  <MolecularWeight>
503.479

>  <ModifiedDate>
2018-08-03

>  <Parent>


>  <OneLetterCode>


>  <SubcomponentList>


>  <AmbiguousFlag>
N

>  <InChI>
InChI=1S/C26H20F3N7O/c1-15-8-9-16(25(37)32-19-7-3-6-18(12-19)26(27,28)29)11-21(15)33-23-20-14-31-36(2)24(20)35-22(34-23)17-5-4-10-30-13-17/h3-14H,1-2H3,(H,32,37)(H,33,34,35)

>  <InChIKey>
ZCCPLJOKGAACRT-UHFFFAOYSA-N

>  <SMILES>
Cc1ccc(cc1Nc2c3cnn(c3nc(n2)c4cccnc4)C)C(=O)Nc5cccc(c5)C(F)(F)F

$$$$
