4DB7_Z25_A_301
  RCSB PDB08012021283D
Coordinates from PDB:4DB7:A:301 Model:1 without hydrogens
 18 19  0  0  0  0            999 V2000
  -14.2740   28.5950    9.4070   O 0  0  0  0  0  0  0  0  0  0  0  0
  -13.1090   28.1590    9.7350   C 0  0  0  0  0  0  0  0  0  0  0  0
  -12.1650   29.0210    9.8450   O 0  0  0  0  0  0  0  0  0  0  0  0
  -12.7590   26.6870    9.5810   C 0  0  0  0  0  0  0  0  0  0  0  0
  -12.0800   26.3060    8.2930   C 0  0  0  0  0  0  0  0  0  0  0  0
  -12.9500   25.7920    7.1560   C 0  0  0  0  0  0  0  0  0  0  0  0
  -13.4960   26.6180    6.1350   C 0  0  0  0  0  0  0  0  0  0  0  0
  -13.2260   27.9720    6.1200   O 0  0  0  0  0  0  0  0  0  0  0  0
  -14.3710   25.9900    5.1530   C 0  0  0  0  0  0  0  0  0  0  0  0
  -14.9930   26.6730    4.0930   C 0  0  0  0  0  0  0  0  0  0  0  0
  -14.7480   28.0100    3.9190   O 0  0  0  0  0  0  0  0  0  0  0  0
  -13.2850   24.4970    7.1560   N 0  0  0  0  0  0  0  0  0  0  0  0
  -14.1050   23.9170    6.2660   N 0  0  0  0  0  0  0  0  0  0  0  0
  -14.6830   24.6070    5.2790   C 0  0  0  0  0  0  0  0  0  0  0  0
  -15.4970   23.9780    4.3800   N 0  0  0  0  0  0  0  0  0  0  0  0
  -16.0200   24.6750    3.3550   C 0  0  0  0  0  0  0  0  0  0  0  0
  -16.8770   23.9900    2.4510   N 0  0  0  0  0  0  0  0  0  0  0  0
  -15.8270   26.0160    3.2330   N 0  0  0  0  0  0  0  0  0  0  0  0
 17 16  1  0  0  0  0
 18 16  1  0  0  0  0
 18 10  1  0  0  0  0
 16 15  2  0  0  0  0
 11 10  2  0  0  0  0
 10  9  1  0  0  0  0
 15 14  1  0  0  0  0
  9 14  2  0  0  0  0
  9  7  1  0  0  0  0
 14 13  1  0  0  0  0
  8  7  2  0  0  0  0
  7  6  1  0  0  0  0
 13 12  1  0  0  0  0
  6 12  2  0  0  0  0
  6  5  1  0  0  0  0
  5  4  1  0  0  0  0
  1  2  2  0  0  0  0
  4  2  1  0  0  0  0
  2  3  1  0  0  0  0
M  END
>  <InstanceId>
4DB7_Z25_A_301

>  <ChemCompId>
Z25

>  <PdbId>
4DB7

>  <ChainId>
A

>  <ResidueNumber>
301

>  <InsertionCode>


>  <Model>
1

>  <AltIds>


>  <MissingHeavyAtoms>
0

>  <ObservedFormula>
C9 N5 O4

>  <Name>
3-(7-amino-4,5-dioxo-1,4,5,6-tetrahydropyrimido[4,5-c]pyridazin-3-yl)propanoic acid

>  <SystematicName>
3-[7-azanyl-4,5-bis(oxidanylidene)-1,6-dihydropyrimido[4,5-c]pyridazin-3-yl]propanoic acid

>  <Synonyms>


>  <Type>
NON-POLYMER

>  <Formula>
C9 H9 N5 O4

>  <MolecularWeight>
251.199

>  <ModifiedDate>
2012-03-23

>  <Parent>


>  <OneLetterCode>


>  <SubcomponentList>


>  <AmbiguousFlag>
N

>  <InChI>
InChI=1S/C9H9N5O4/c10-9-11-7-5(8(18)12-9)6(17)3(13-14-7)1-2-4(15)16/h1-2H2,(H,15,16)(H4,10,11,12,14,17,18)

>  <InChIKey>
CGUTUVAIFLDCOT-UHFFFAOYSA-N

>  <SMILES>
C(CC(=O)O)C1=NNC2=C(C1=O)C(=O)NC(=N2)N

$$$$
