1RMZ_NGH_A_269
  RCSB PDB08012015533D
Coordinates from PDB:1RMZ:A:269 Model:1 without hydrogens
 21 21  0  0  0  0            999 V2000
    5.6860   25.7730    5.1030   C 0  0  0  0  0  0  0  0  0  0  0  0
    4.8190   24.5880    5.4310   C 0  0  0  0  0  0  0  0  0  0  0  0
    5.3440   23.2220    5.0390   C 0  0  0  0  0  0  0  0  0  0  0  0
    6.7490   22.9920    4.6070   C 0  0  0  0  0  0  0  0  0  0  0  0
    7.5880   24.1570    4.3210   C 0  0  0  0  0  0  0  0  0  0  0  0
    6.9710   25.5300    4.3710   C 0  0  0  0  0  0  0  0  0  0  0  0
    4.8060   22.0520    5.6080   O 0  0  0  0  0  0  0  0  0  0  0  0
    3.4810   22.1230    6.1270   C 0  0  0  0  0  0  0  0  0  0  0  0
    8.0310   26.8030    4.1980   S 0  0  0  0  0  0  0  0  0  0  0  0
    9.4750   26.2970    4.2240   O 0  0  0  0  0  0  0  0  0  0  0  0
    7.7140   27.9250    5.2210   O 0  0  0  0  0  0  0  0  0  0  0  0
    7.8730   27.1890    2.6870   N 0  0  0  0  0  0  0  0  0  0  0  0
    6.7760   28.0630    2.2290   C 0  0  0  0  0  0  0  0  0  0  0  0
    8.7190   26.5180    1.6770   C 0  0  0  0  0  0  0  0  0  0  0  0
    7.8710   25.3180    1.2280   C 0  0  0  0  0  0  0  0  0  0  0  0
    8.5430   24.1350    0.8100   N 0  0  0  0  0  0  0  0  0  0  0  0
    7.8450   23.1190    0.5040   O 0  0  0  0  0  0  0  0  0  0  0  0
    6.8870   25.5300    0.2820   O 0  0  0  0  0  0  0  0  0  0  0  0
    7.2480   29.3240    1.4730   C 0  0  0  0  0  0  0  0  0  0  0  0
    7.6240   30.4300    2.4390   C 0  0  0  0  0  0  0  0  0  0  0  0
    6.2040   29.8250    0.4700   C 0  0  0  0  0  0  0  0  0  0  0  0
  1  2  2  0  0  0  0
  1  6  1  0  0  0  0
  2  3  1  0  0  0  0
  3  4  2  0  0  0  0
  3  7  1  0  0  0  0
  4  5  1  0  0  0  0
  5  6  2  0  0  0  0
  6  9  1  0  0  0  0
  7  8  1  0  0  0  0
  9 10  2  0  0  0  0
  9 11  2  0  0  0  0
  9 12  1  0  0  0  0
 12 13  1  0  0  0  0
 12 14  1  0  0  0  0
 13 19  1  0  0  0  0
 14 15  1  0  0  0  0
 15 16  1  0  0  0  0
 15 18  2  0  0  0  0
 16 17  1  0  0  0  0
 19 20  1  0  0  0  0
 19 21  1  0  0  0  0
M  END
>  <InstanceId>
1RMZ_NGH_A_269

>  <ChemCompId>
NGH

>  <PdbId>
1RMZ

>  <ChainId>
A

>  <ResidueNumber>
269

>  <InsertionCode>


>  <Model>
1

>  <AltIds>


>  <MissingHeavyAtoms>
0

>  <ObservedFormula>
C13 N2 O5 S

>  <Name>
N-ISOBUTYL-N-[4-METHOXYPHENYLSULFONYL]GLYCYL HYDROXAMIC ACID

>  <SystematicName>
N-hydroxy-2-[(4-methoxyphenyl)sulfonyl-(2-methylpropyl)amino]ethanamide

>  <Synonyms>


>  <Type>
NON-POLYMER

>  <Formula>
C13 H20 N2 O5 S

>  <MolecularWeight>
316.373

>  <ModifiedDate>
2011-06-04

>  <Parent>


>  <OneLetterCode>


>  <SubcomponentList>


>  <AmbiguousFlag>
N

>  <InChI>
InChI=1S/C13H20N2O5S/c1-10(2)8-15(9-13(16)14-17)21(18,19)12-6-4-11(20-3)5-7-12/h4-7,10,17H,8-9H2,1-3H3,(H,14,16)

>  <InChIKey>
JIRXORZYIXSWOB-UHFFFAOYSA-N

>  <SMILES>
CC(C)C[N@](CC(=O)NO)S(=O)(=O)c1ccc(cc1)OC

$$$$
