3T09_149_A_2001
  RCSB PDB08012020313D
Coordinates from PDB:3T09:A:2001 Model:1 without hydrogens
 12 12  0  0  0  0            999 V2000
   53.9660   -8.9740   28.8870   C 0  0  0  0  0  0  0  0  0  0  0  0
   53.7240   -8.0440   27.7260   C 0  0  0  0  0  0  0  0  0  0  0  0
   52.5340   -7.1500   28.0210   C 0  0  0  0  0  0  0  0  0  0  0  0
   51.4130   -8.0330   28.5680   C 0  0  0  0  0  0  0  0  0  0  0  0
   51.7740   -8.5330   29.9710   C 0  0  0  0  0  0  0  0  0  0  0  0
   50.7940   -9.5750   30.5180   C 0  0  0  0  0  0  0  0  0  0  0  0
   54.9720   -9.6420   28.9110   O 0  0  0  0  0  0  0  0  0  0  0  0
   54.8980   -7.2550   27.4600   O 0  0  0  0  0  0  0  0  0  0  0  0
   52.1110   -6.5110   26.8110   O 0  0  0  0  0  0  0  0  0  0  0  0
   51.1790   -9.1360   27.6780   O 0  0  0  0  0  0  0  0  0  0  0  0
   53.0670   -9.1430   30.0370   O 0  0  0  0  0  0  0  0  0  0  0  0
   49.4890   -9.0040   30.5930   O 0  0  0  0  0  0  0  0  0  0  0  0
  1  2  1  0  0  0  0
  1  7  2  0  0  0  0
  1 11  1  0  0  0  0
  2  3  1  0  0  0  0
  2  8  1  0  0  0  0
  3  4  1  0  0  0  0
  3  9  1  0  0  0  0
  4  5  1  0  0  0  0
  4 10  1  0  0  0  0
  5  6  1  0  0  0  0
  5 11  1  0  0  0  0
  6 12  1  0  0  0  0
M  END
>  <InstanceId>
3T09_149_A_2001

>  <ChemCompId>
149

>  <PdbId>
3T09

>  <ChainId>
A

>  <ResidueNumber>
2001

>  <InsertionCode>


>  <Model>
1

>  <AltIds>


>  <MissingHeavyAtoms>
0

>  <ObservedFormula>
C6 O6

>  <Name>
D-galactonolactone

>  <SystematicName>
(3R,4S,5R,6R)-3,4,5-trihydroxy-6-(hydroxymethyl)oxan-2-one

>  <Synonyms>
(3R,4S,5R,6R)-3,4,5-trihydroxy-6-(hydroxymethyl)oxan-2-one

>  <Type>
D-saccharide

>  <Formula>
C6 H10 O6

>  <MolecularWeight>
178.14

>  <ModifiedDate>
2020-07-17

>  <Parent>


>  <OneLetterCode>


>  <SubcomponentList>


>  <AmbiguousFlag>
N

>  <InChI>
InChI=1S/C6H10O6/c7-1-2-3(8)4(9)5(10)6(11)12-2/h2-5,7-10H,1H2/t2-,3+,4+,5-/m1/s1

>  <InChIKey>
PHOQVHQSTUBQQK-MGCNEYSASA-N

>  <SMILES>
C([C@@H]1[C@@H]([C@@H]([C@H](C(=O)O1)O)O)O)O

$$$$
