3SUE_SUE_A_1201
  RCSB PDB08012020303D
Coordinates from PDB:3SUE:A:1201 Model:1 without hydrogens
 54 60  0  0  0  0            999 V2000
    2.4760   -9.7570   31.1330   C 0  0  0  0  0  0  0  0  0  0  0  0
    1.3770  -11.7780   31.5120   N 0  0  0  0  0  0  0  0  0  0  0  0
    1.9560   -9.6360   30.0650   O 0  0  0  0  0  0  0  0  0  0  0  0
    2.6250  -11.0070   31.6660   C 0  0  0  0  0  0  0  0  0  0  0  0
    3.9010  -11.7690   31.1510   C 0  0  0  0  0  0  0  0  0  0  0  0
    0.4870  -11.9400   32.4950   C 0  0  0  0  0  0  0  0  0  0  0  0
    2.5950   -5.6560   35.5540   N 0  0  0  0  0  0  0  0  0  0  0  0
    0.4540   -3.3530   37.1790   C 0  0  0  0  0  0  0  0  0  0  0  0
    3.1150   -3.9150   36.9200   C 0  0  0  0  0  0  0  0  0  0  0  0
   -2.9650  -13.1150   33.0540   C 0  0  0  0  0  0  0  0  0  0  0  0
   -2.4620  -11.7730   33.4680   C 0  0  0  0  0  0  0  0  0  0  0  0
   -1.5080  -12.8960   33.2950   C 0  0  0  0  0  0  0  0  0  0  0  0
    7.6460   -1.9430   28.4520   C 0  0  0  0  0  0  0  0  0  0  0  0
    6.2860   -1.7790   28.9500   C 0  0  0  0  0  0  0  0  0  0  0  0
    5.8900   -3.4560   26.3170   O 0  0  0  0  0  0  0  0  0  0  0  0
    6.2200   -4.2460   27.4200   S 0  0  0  0  0  0  0  0  0  0  0  0
    3.0140   -6.7220   27.7090   C 0  0  0  0  0  0  0  0  0  0  0  0
    4.5290   -7.8200   29.7450   O 0  0  0  0  0  0  0  0  0  0  0  0
    3.4920   -7.2800   30.0230   C 0  0  0  0  0  0  0  0  0  0  0  0
    4.1810  -12.8780   32.1250   C 0  0  0  0  0  0  0  0  0  0  0  0
    3.2000   -8.5640   25.8730   C 0  0  0  0  0  0  0  0  0  0  0  0
    0.8600   -4.3950   36.4100   C 0  0  0  0  0  0  0  0  0  0  0  0
   -2.6010  -11.3050   34.8700   C 0  0  0  0  0  0  0  0  0  0  0  0
    4.9830   -5.1230   27.9380   N 0  0  0  0  0  0  0  0  0  0  0  0
    2.5120   -7.9920   27.0840   C 0  0  0  0  0  0  0  0  0  0  0  0
   -1.2050   -9.2640   34.7080   C 0  0  0  0  0  0  0  0  0  0  0  0
    1.3730   -2.5830   37.8230   C 0  0  0  0  0  0  0  0  0  0  0  0
    2.1540   -7.4020   34.2250   O 0  0  0  0  0  0  0  0  0  0  0  0
    4.9190   -2.2270   38.3330   C 0  0  0  0  0  0  0  0  0  0  0  0
    3.5620   -2.0510   38.3700   O 0  0  0  0  0  0  0  0  0  0  0  0
   -2.5850   -9.8380   34.8740   C 0  0  0  0  0  0  0  0  0  0  0  0
   -1.0960   -7.9650   35.3470   C 0  0  0  0  0  0  0  0  0  0  0  0
    1.7410   -6.3910   34.9400   C 0  0  0  0  0  0  0  0  0  0  0  0
    0.3710   -6.1430   35.0590   C 0  0  0  0  0  0  0  0  0  0  0  0
    2.1960   -4.6710   36.2800   C 0  0  0  0  0  0  0  0  0  0  0  0
   -0.0160   -5.1350   35.8010   N 0  0  0  0  0  0  0  0  0  0  0  0
   -0.6130   -6.9000   34.4340   C 0  0  0  0  0  0  0  0  0  0  0  0
    2.7250   -2.8500   37.7080   C 0  0  0  0  0  0  0  0  0  0  0  0
    7.2670   -5.0730   26.9790   O 0  0  0  0  0  0  0  0  0  0  0  0
    6.8750   -3.1150   28.8700   C 0  0  0  0  0  0  0  0  0  0  0  0
    4.4810   -5.9790   25.9480   O 0  0  0  0  0  0  0  0  0  0  0  0
    1.7970   -6.7560   26.8310   C 0  0  0  0  0  0  0  0  0  0  0  0
    4.2480   -5.9010   27.1210   C 0  0  0  0  0  0  0  0  0  0  0  0
    2.7470   -6.7240   29.1320   N 0  0  0  0  0  0  0  0  0  0  0  0
    4.1050   -9.7400   26.1140   C 0  0  0  0  0  0  0  0  0  0  0  0
    0.7400  -11.4340   33.5500   O 0  0  0  0  0  0  0  0  0  0  0  0
   -0.5890  -12.6520   32.2310   O 0  0  0  0  0  0  0  0  0  0  0  0
    3.5730   -6.5220   32.4150   C 0  0  0  0  0  0  0  0  0  0  0  0
    2.9130   -7.3220   31.3040   C 0  0  0  0  0  0  0  0  0  0  0  0
    2.9360   -8.7200   31.7840   N 0  0  0  0  0  0  0  0  0  0  0  0
    3.6130   -8.7310   33.0750   C 0  0  0  0  0  0  0  0  0  0  0  0
    3.4360   -7.4130   33.6420   C 0  0  0  0  0  0  0  0  0  0  0  0
    5.1000  -10.8780   31.0950   C 0  0  0  0  0  0  0  0  0  0  0  0
    3.7310  -12.3340   29.7660   C 0  0  0  0  0  0  0  0  0  0  0  0
 50  1  1  0  0  0  0
  4  1  1  0  0  0  0
  1  3  2  0  0  0  0
  6  2  1  0  0  0  0
  4  2  1  0  0  0  0
  4  5  1  0  0  0  0
 20  5  1  0  0  0  0
 53  5  1  0  0  0  0
  5 54  1  0  0  0  0
 46  6  2  0  0  0  0
  6 47  1  0  0  0  0
 35  7  2  0  0  0  0
  7 33  1  0  0  0  0
 27  8  2  0  0  0  0
  8 22  1  0  0  0  0
 38  9  2  0  0  0  0
  9 35  1  0  0  0  0
 11 10  1  0  0  0  0
 12 10  1  0  0  0  0
 23 11  1  0  0  0  0
 11 12  1  0  0  0  0
 12 47  1  0  0  0  0
 14 13  1  0  0  0  0
 40 13  1  0  0  0  0
 14 40  1  0  0  0  0
 16 15  2  0  0  0  0
 40 16  1  0  0  0  0
 24 16  1  0  0  0  0
 16 39  2  0  0  0  0
 44 17  1  0  0  0  0
 17 43  1  0  0  0  0
 17 42  1  0  0  0  0
 17 25  1  0  0  0  0
 19 18  2  0  0  0  0
 49 19  1  0  0  0  0
 19 44  1  0  0  0  0
 25 21  1  0  0  0  0
 21 45  2  0  0  0  0
 22 35  1  0  0  0  0
 22 36  2  0  0  0  0
 31 23  1  0  0  0  0
 24 43  1  0  0  0  0
 42 25  1  0  0  0  0
 32 26  1  0  0  0  0
 26 31  1  0  0  0  0
 27 38  1  0  0  0  0
 33 28  1  0  0  0  0
 28 52  1  0  0  0  0
 30 29  1  0  0  0  0
 30 38  1  0  0  0  0
 32 37  1  0  0  0  0
 34 33  2  0  0  0  0
 36 34  1  0  0  0  0
 34 37  1  0  0  0  0
 43 41  2  0  0  0  0
 52 48  1  0  0  0  0
 48 49  1  0  0  0  0
 49 50  1  0  0  0  0
 51 50  1  0  0  0  0
 52 51  1  0  0  0  0
M  END
>  <InstanceId>
3SUE_SUE_A_1201

>  <ChemCompId>
SUE

>  <PdbId>
3SUE

>  <ChainId>
A

>  <ResidueNumber>
1201

>  <InsertionCode>


>  <Model>
1

>  <AltIds>


>  <MissingHeavyAtoms>
0

>  <ObservedFormula>
C38 N6 O9 S

>  <Name>
(1aR,5S,8S,10R,22aR)-5-tert-butyl-N-{(1R,2S)-1-[(cyclopropylsulfonyl)carbamoyl]-2-ethenylcyclopropyl}-14-methoxy-3,6-di oxo-1,1a,3,4,5,6,9,10,18,19,20,21,22,22a-tetradecahydro-8H-7,10-methanocyclopropa[18,19][1,10,3,6]dioxadiazacyclononadec ino[11,12-b]quinoxaline-8-carboxamide

>  <SystematicName>


>  <Synonyms>
Grazoprevir, MK-5172

>  <Type>
NON-POLYMER

>  <Formula>
C38 H50 N6 O9 S

>  <MolecularWeight>
766.903

>  <ModifiedDate>
2020-06-17

>  <Parent>


>  <OneLetterCode>


>  <SubcomponentList>


>  <AmbiguousFlag>
N

>  <InChI>
InChI=1S/C38H50N6O9S/c1-6-22-19-38(22,35(47)43-54(49,50)25-13-14-25)42-32(45)29-18-24-20-44(29)34(46)31(37(2,3)4)41-36(48)53-30-16-21(30)10-8-7-9-11-27-33(52-24)40-28-17-23(51-5)12-15-26(28)39-27/h6,12,15,17,21-22,24-25,29-31H,1,7-11,13-14,16,18-20H2,2-5H3,(H,41,48)(H,42,45)(H,43,47)/t21-,22-,24-,29+,30-,31-,38-/m1/s1

>  <InChIKey>
OBMNJSNZOWALQB-NCQNOWPTSA-N

>  <SMILES>
CC(C)(C)[C@H]1C(=O)N2C[C@@H](C[C@H]2C(=O)N[C@@]3(C[C@H]3C=C)C(=O)NS(=O)(=O)C4CC4)Oc5c(nc6ccc(cc6n5)OC)CCCCC[C@@H]7C[C@H]7OC(=O)N1

$$$$
