2VB8_TLM_A_1405
  RCSB PDB08012018003D
Coordinates from PDB:2VB8:A:1405 Model:1 without hydrogens
 14 14  0  0  0  0            999 V2000
   38.3000   70.7100   60.5360   S 0  0  0  0  0  0  0  0  0  0  0  0
   38.5160   71.3010   62.1040   C 0  0  0  0  0  0  0  0  0  0  0  0
   39.5890   72.0580   62.3000   C 0  0  0  0  0  0  0  0  0  0  0  0
   40.3110   72.2630   61.1950   C 0  0  0  0  0  0  0  0  0  0  0  0
   39.7000   71.6830   59.9460   C 0  0  0  0  0  0  0  0  0  0  0  0
   40.7670   70.8000   59.2740   C 0  0  0  0  0  0  0  0  0  0  0  0
   40.5880   69.8660   58.2960   C 0  0  0  0  0  0  0  0  0  0  0  0
   41.7650   69.0970   57.8030   C 0  0  0  0  0  0  0  0  0  0  0  0
   41.7200   68.1390   56.8690   C 0  0  0  0  0  0  0  0  0  0  0  0
   37.6930   71.0280   62.9700   O 0  0  0  0  0  0  0  0  0  0  0  0
   39.9210   72.6500   63.6480   C 0  0  0  0  0  0  0  0  0  0  0  0
   41.4700   72.9310   61.1720   O 0  0  0  0  0  0  0  0  0  0  0  0
   39.2100   72.8700   59.0780   C 0  0  0  0  0  0  0  0  0  0  0  0
   39.2280   69.6090   57.7030   C 0  0  0  0  0  0  0  0  0  0  0  0
  1  2  1  0  0  0  0
  1  5  1  0  0  0  0
  2  3  1  0  0  0  0
  2 10  2  0  0  0  0
  3  4  2  0  0  0  0
  3 11  1  0  0  0  0
  4  5  1  0  0  0  0
  4 12  1  0  0  0  0
  5  6  1  0  0  0  0
  5 13  1  0  0  0  0
  6  7  2  0  0  0  0
  7  8  1  0  0  0  0
  7 14  1  0  0  0  0
  8  9  2  0  0  0  0
M  END
>  <InstanceId>
2VB8_TLM_A_1405

>  <ChemCompId>
TLM

>  <PdbId>
2VB8

>  <ChainId>
A

>  <ResidueNumber>
1405

>  <InsertionCode>


>  <Model>
1

>  <AltIds>


>  <MissingHeavyAtoms>
0

>  <ObservedFormula>
C11 O2 S

>  <Name>
THIOLACTOMYCIN

>  <SystematicName>
(5R)-4-hydroxy-3,5-dimethyl-5-[(1E)-2-methylbuta-1,3-dienyl]thiophen-2-one

>  <Synonyms>
4-HYDROXY-3,5-DIMETHYL-5-(2-METHYL-BUTA-1,3-DIENYL)-5H-THIOPHEN-2-ONE

>  <Type>
NON-POLYMER

>  <Formula>
C11 H14 O2 S

>  <MolecularWeight>
210.293

>  <ModifiedDate>
2020-06-17

>  <Parent>


>  <OneLetterCode>


>  <SubcomponentList>


>  <AmbiguousFlag>
N

>  <InChI>
InChI=1S/C11H14O2S/c1-5-7(2)6-11(4)9(12)8(3)10(13)14-11/h5-6,12H,1H2,2-4H3/b7-6+/t11-/m1/s1

>  <InChIKey>
SYQNUQSGEWNWKV-XUIVZRPNSA-N

>  <SMILES>
CC1=C([C@@](SC1=O)(C)\C=C(/C)\C=C)O

$$$$
