2R43_G3G_B_2501
  RCSB PDB08012017533D
Coordinates from PDB:2R43:B:2501 Model:1 without hydrogens
 41 45  0  0  0  0            999 V2000
  -14.7450   23.7500   -1.7310   C 0  0  0  0  0  0  0  0  0  0  0  0
  -13.6670   24.2220   -2.5000   C 0  0  0  0  0  0  0  0  0  0  0  0
  -13.7640   24.1920   -3.9170   C 0  0  0  0  0  0  0  0  0  0  0  0
  -14.9510   23.6710   -4.5060   C 0  0  0  0  0  0  0  0  0  0  0  0
  -16.0300   23.1860   -3.7250   C 0  0  0  0  0  0  0  0  0  0  0  0
  -15.9300   23.2320   -2.3150   C 0  0  0  0  0  0  0  0  0  0  0  0
  -17.4600   22.5520   -4.5940   S 0  0  0  0  0  0  0  0  0  0  0  0
  -18.6040   22.9310   -3.7680   O 0  0  0  0  0  0  0  0  0  0  0  0
  -17.2910   22.9710   -5.9610   O 0  0  0  0  0  0  0  0  0  0  0  0
  -17.1540   20.8760   -4.3050   N 0  0  0  0  0  0  0  0  0  0  0  0
  -17.7290   20.2290   -3.0980   C 0  0  0  0  0  0  0  0  0  0  0  0
  -19.0190   19.4400   -3.1260   C 0  0  0  0  0  0  0  0  0  0  0  0
  -19.1290   18.2920   -2.2790   C 0  0  0  0  0  0  0  0  0  0  0  0
  -20.3230   17.5290   -2.2340   C 0  0  0  0  0  0  0  0  0  0  0  0
  -21.3980   17.8800   -3.0880   C 0  0  0  0  0  0  0  0  0  0  0  0
  -21.2870   19.0090   -3.9460   C 0  0  0  0  0  0  0  0  0  0  0  0
  -20.1010   19.7880   -3.9640   C 0  0  0  0  0  0  0  0  0  0  0  0
  -16.2480   20.1720   -5.2950   C 0  0  0  0  0  0  0  0  0  0  0  0
  -14.8920   19.7440   -4.6940   C 0  0  0  0  0  0  0  0  0  0  0  0
  -14.8090   18.2760   -4.7020   N 0  0  0  0  0  0  0  0  0  0  0  0
  -16.1220   17.7040   -5.1150   C 0  0  0  0  0  0  0  0  0  0  0  0
  -16.9180   18.8290   -5.8220   C 0  0  0  0  0  0  0  0  0  0  0  0
  -16.7490   18.7960   -7.3160   N 0  0  0  0  0  0  0  0  0  0  0  0
  -15.4620   18.5460   -8.0060   C 0  0  0  0  0  0  0  0  0  0  0  0
  -14.5810   19.7990   -8.1370   C 0  0  0  0  0  0  0  0  0  0  0  0
  -13.2100   19.7570   -7.7470   C 0  0  0  0  0  0  0  0  0  0  0  0
  -12.3640   20.8990   -7.8520   C 0  0  0  0  0  0  0  0  0  0  0  0
  -12.9090   22.1110   -8.3690   C 0  0  0  0  0  0  0  0  0  0  0  0
  -14.2780   22.1660   -8.7600   C 0  0  0  0  0  0  0  0  0  0  0  0
  -15.1140   21.0200   -8.6480   C 0  0  0  0  0  0  0  0  0  0  0  0
  -18.1070   19.1180   -8.2690   S 0  0  0  0  0  0  0  0  0  0  0  0
  -19.2780   17.7950   -8.2320   C 0  0  0  0  0  0  0  0  0  0  0  0
  -19.0610   16.5280   -8.8520   C 0  0  0  0  0  0  0  0  0  0  0  0
  -20.0550   15.5170   -8.7770   C 0  0  0  0  0  0  0  0  0  0  0  0
  -21.2950   15.7600   -8.0740   C 0  0  0  0  0  0  0  0  0  0  0  0
  -21.5230   17.0260   -7.4520   C 0  0  0  0  0  0  0  0  0  0  0  0
  -20.4990   18.0220   -7.5380   C 0  0  0  0  0  0  0  0  0  0  0  0
  -17.6280   19.1870   -9.6680   O 0  0  0  0  0  0  0  0  0  0  0  0
  -18.8090   20.2830   -7.6770   O 0  0  0  0  0  0  0  0  0  0  0  0
  -22.2450   14.8010   -7.9900   N 0  0  0  0  0  0  0  0  0  0  0  0
  -12.5570   24.7170   -1.9050   N 0  0  0  0  0  0  0  0  0  0  0  0
  1  2  2  0  0  0  0
  1  6  1  0  0  0  0
  2  3  1  0  0  0  0
  2 41  1  0  0  0  0
  3  4  2  0  0  0  0
  4  5  1  0  0  0  0
  5  7  1  0  0  0  0
  5  6  2  0  0  0  0
  7  9  2  0  0  0  0
  7 10  1  0  0  0  0
  7  8  2  0  0  0  0
 10 18  1  0  0  0  0
 10 11  1  0  0  0  0
 11 12  1  0  0  0  0
 12 17  1  0  0  0  0
 12 13  2  0  0  0  0
 13 14  1  0  0  0  0
 14 15  2  0  0  0  0
 15 16  1  0  0  0  0
 16 17  2  0  0  0  0
 18 22  1  0  0  0  0
 18 19  1  0  0  0  0
 19 20  1  0  0  0  0
 20 21  1  0  0  0  0
 21 22  1  0  0  0  0
 22 23  1  0  0  0  0
 23 31  1  0  0  0  0
 23 24  1  0  0  0  0
 24 25  1  0  0  0  0
 25 30  1  0  0  0  0
 25 26  2  0  0  0  0
 26 27  1  0  0  0  0
 27 28  2  0  0  0  0
 28 29  1  0  0  0  0
 29 30  2  0  0  0  0
 31 38  2  0  0  0  0
 31 32  1  0  0  0  0
 31 39  2  0  0  0  0
 32 33  1  0  0  0  0
 32 37  2  0  0  0  0
 33 34  2  0  0  0  0
 34 35  1  0  0  0  0
 35 40  1  0  0  0  0
 35 36  2  0  0  0  0
 36 37  1  0  0  0  0
M  END
>  <InstanceId>
2R43_G3G_B_2501

>  <ChemCompId>
G3G

>  <PdbId>
2R43

>  <ChainId>
B

>  <ResidueNumber>
2501

>  <InsertionCode>


>  <Model>
1

>  <AltIds>


>  <MissingHeavyAtoms>
0

>  <ObservedFormula>
C30 N5 O4 S2

>  <Name>
N,N'-(3S,4S)-PYRROLIDINE-3,4-DIYLBIS(4-AMINO-N-BENZYLBENZENESULFONAMIDE)

>  <SystematicName>
4-amino-N-[(3S,4S)-4-[(4-aminophenyl)sulfonyl-(phenylmethyl)amino]pyrrolidin-3-yl]-N-(phenylmethyl)benzenesulfonamide

>  <Synonyms>


>  <Type>
NON-POLYMER

>  <Formula>
C30 H33 N5 O4 S2

>  <MolecularWeight>
591.744

>  <ModifiedDate>
2011-06-04

>  <Parent>


>  <OneLetterCode>


>  <SubcomponentList>


>  <AmbiguousFlag>


>  <InChI>
InChI=1S/C30H33N5O4S2/c31-25-11-15-27(16-12-25)40(36,37)34(21-23-7-3-1-4-8-23)29-19-33-20-30(29)35(22-24-9-5-2-6-10-24)41(38,39)28-17-13-26(32)14-18-28/h1-18,29-30,33H,19-22,31-32H2/t29-,30-/m0/s1

>  <InChIKey>
XDDOZTWMJWWMBF-KYJUHHDHSA-N

>  <SMILES>
c1ccc(cc1)CN([C@H]2CNC[C@@H]2N(Cc3ccccc3)S(=O)(=O)c4ccc(cc4)N)S(=O)(=O)c5ccc(cc5)N

$$$$
