4JYC_GDP_D_501
  RCSB PDB08012022103D
Coordinates from PDB:4JYC:D:501 Model:1 without hydrogens
 28 30  0  0  0  0            999 V2000
  -37.1990    0.9500   43.9240   P 0  0  0  0  0  0  0  0  0  0  0  0
  -38.4530    1.5810   44.4610   O 0  0  0  0  0  0  0  0  0  0  0  0
  -37.4390   -0.2420   43.0690   O 0  0  0  0  0  0  0  0  0  0  0  0
  -36.2130    1.9210   43.2740   O 0  0  0  0  0  0  0  0  0  0  0  0
  -36.3190    0.4940   45.2050   O 0  0  0  0  0  0  0  0  0  0  0  0
  -36.8260   -0.0270   46.6280   P 0  0  0  0  0  0  0  0  0  0  0  0
  -37.9180   -1.0510   46.4520   O 0  0  0  0  0  0  0  0  0  0  0  0
  -37.0920    1.1610   47.5290   O 0  0  0  0  0  0  0  0  0  0  0  0
  -35.5190   -0.7600   47.2340   O 0  0  0  0  0  0  0  0  0  0  0  0
  -34.9000   -1.8730   46.5890   C 0  0  0  0  0  0  0  0  0  0  0  0
  -33.9390   -2.5860   47.5340   C 0  0  0  0  0  0  0  0  0  0  0  0
  -32.8210   -1.7150   47.8350   O 0  0  0  0  0  0  0  0  0  0  0  0
  -34.6270   -2.9960   48.8290   C 0  0  0  0  0  0  0  0  0  0  0  0
  -34.2630   -4.3350   49.2680   O 0  0  0  0  0  0  0  0  0  0  0  0
  -34.1970   -1.8620   49.7380   C 0  0  0  0  0  0  0  0  0  0  0  0
  -34.2110   -2.1690   51.1230   O 0  0  0  0  0  0  0  0  0  0  0  0
  -32.7970   -1.5160   49.2450   C 0  0  0  0  0  0  0  0  0  0  0  0
  -32.4480   -0.1300   49.5450   N 0  0  0  0  0  0  0  0  0  0  0  0
  -33.1960    0.9750   49.3250   C 0  0  0  0  0  0  0  0  0  0  0  0
  -32.5230    2.0770   49.7300   N 0  0  0  0  0  0  0  0  0  0  0  0
  -31.3300    1.7010   50.2180   C 0  0  0  0  0  0  0  0  0  0  0  0
  -30.1450    2.3700   50.7960   C 0  0  0  0  0  0  0  0  0  0  0  0
  -30.0670    3.6150   50.9700   O 0  0  0  0  0  0  0  0  0  0  0  0
  -29.1390    1.5700   51.1570   N 0  0  0  0  0  0  0  0  0  0  0  0
  -29.1770    0.2170   51.0030   C 0  0  0  0  0  0  0  0  0  0  0  0
  -28.1240   -0.5290   51.3820   N 0  0  0  0  0  0  0  0  0  0  0  0
  -30.1970   -0.4540   50.4610   N 0  0  0  0  0  0  0  0  0  0  0  0
  -31.2900    0.2300   50.0780   C 0  0  0  0  0  0  0  0  0  0  0  0
  1  2  2  0  0  0  0
  1  3  1  0  0  0  0
  1  4  1  0  0  0  0
  1  5  1  0  0  0  0
  5  6  1  0  0  0  0
  6  7  2  0  0  0  0
  6  8  1  0  0  0  0
  6  9  1  0  0  0  0
  9 10  1  0  0  0  0
 10 11  1  0  0  0  0
 11 12  1  0  0  0  0
 11 13  1  0  0  0  0
 12 17  1  0  0  0  0
 13 14  1  0  0  0  0
 13 15  1  0  0  0  0
 15 16  1  0  0  0  0
 15 17  1  0  0  0  0
 17 18  1  0  0  0  0
 18 19  1  0  0  0  0
 18 28  1  0  0  0  0
 19 20  2  0  0  0  0
 20 21  1  0  0  0  0
 21 22  1  0  0  0  0
 21 28  2  0  0  0  0
 22 23  2  0  0  0  0
 22 24  1  0  0  0  0
 24 25  1  0  0  0  0
 25 26  1  0  0  0  0
 25 27  2  0  0  0  0
 27 28  1  0  0  0  0
M  END
>  <InstanceId>
4JYC_GDP_D_501

>  <ChemCompId>
GDP

>  <PdbId>
4JYC

>  <ChainId>
D

>  <ResidueNumber>
501

>  <InsertionCode>


>  <Model>
1

>  <AltIds>


>  <MissingHeavyAtoms>
0

>  <ObservedFormula>
C10 N5 O11 P2

>  <Name>
GUANOSINE-5'-DIPHOSPHATE

>  <SystematicName>
[(2R,3S,4R,5R)-5-(2-azanyl-6-oxidanylidene-1H-purin-9-yl)-3,4-bis(oxidanyl)oxolan-2-yl]methyl phosphono hydrogen phosphate

>  <Synonyms>


>  <Type>
RNA LINKING

>  <Formula>
C10 H15 N5 O11 P2

>  <MolecularWeight>
443.201

>  <ModifiedDate>
2014-05-12

>  <Parent>
G

>  <OneLetterCode>
G

>  <SubcomponentList>


>  <AmbiguousFlag>
N

>  <InChI>
InChI=1S/C10H15N5O11P2/c11-10-13-7-4(8(18)14-10)12-2-15(7)9-6(17)5(16)3(25-9)1-24-28(22,23)26-27(19,20)21/h2-3,5-6,9,16-17H,1H2,(H,22,23)(H2,19,20,21)(H3,11,13,14,18)/t3-,5-,6-,9-/m1/s1

>  <InChIKey>
QGWNDRXFNXRZMB-UUOKFMHZSA-N

>  <SMILES>
c1nc2c(n1[C@H]3[C@@H]([C@@H]([C@H](O3)CO[P@](=O)(O)OP(=O)(O)O)O)O)N=C(NC2=O)N

$$$$
