4E0X_KAI_A_301
  RCSB PDB08012021333D
Coordinates from PDB:4E0X:A:301 Model:1 without hydrogens
 15 15  0  0  0  0            999 V2000
   -1.0010   33.9300  105.1160   N 0  0  0  0  0  0  0  0  0  0  0  0
   -0.2730   33.4800  103.8940   C 0  0  0  0  0  0  0  0  0  0  0  0
   -0.8970   34.9250  100.2650   C 0  0  0  0  0  0  0  0  0  0  0  0
    1.1020   33.8750  101.3370   C 0  0  0  0  0  0  0  0  0  0  0  0
   -2.0260   34.9940  104.7060   C 0  0  0  0  0  0  0  0  0  0  0  0
   -1.5320   35.4610  103.3190   C 0  0  0  0  0  0  0  0  0  0  0  0
   -0.4430   36.5550  103.4010   C 0  0  0  0  0  0  0  0  0  0  0  0
   -0.9960   34.1370  102.7120   C 0  0  0  0  0  0  0  0  0  0  0  0
   -0.9270   37.9700  103.7000   C 0  0  0  0  0  0  0  0  0  0  0  0
   -0.1820   34.2810  101.4390   C 0  0  0  0  0  0  0  0  0  0  0  0
   -3.4730   34.3790  104.6920   C 0  0  0  0  0  0  0  0  0  0  0  0
   -3.5340   33.2340  105.2410   O 0  0  0  0  0  0  0  0  0  0  0  0
   -0.0120   38.7730  104.0680   O 0  0  0  0  0  0  0  0  0  0  0  0
   -2.1640   38.2200  103.5730   O 0  0  0  0  0  0  0  0  0  0  0  0
   -4.4110   35.0340  104.1600   O 0  0  0  0  0  0  0  0  0  0  0  0
  1  2  1  0  0  0  0
  1  5  1  0  0  0  0
  2  8  1  0  0  0  0
  3 10  2  0  0  0  0
  4 10  1  0  0  0  0
  5  6  1  0  0  0  0
  5 11  1  0  0  0  0
  6  7  1  0  0  0  0
  6  8  1  0  0  0  0
  7  9  1  0  0  0  0
  8 10  1  0  0  0  0
  9 13  1  0  0  0  0
  9 14  2  0  0  0  0
 11 12  2  0  0  0  0
 11 15  1  0  0  0  0
M  END
>  <InstanceId>
4E0X_KAI_A_301

>  <ChemCompId>
KAI

>  <PdbId>
4E0X

>  <ChainId>
A

>  <ResidueNumber>
301

>  <InsertionCode>


>  <Model>
1

>  <AltIds>


>  <MissingHeavyAtoms>
0

>  <ObservedFormula>
C10 N O4

>  <Name>
3-(CARBOXYMETHYL)-4-ISOPROPENYLPROLINE

>  <SystematicName>
(2S,3S,4S)-3-(carboxymethyl)-4-prop-1-en-2-yl-pyrrolidine-2-carboxylic acid

>  <Synonyms>
KAINATE

>  <Type>
NON-POLYMER

>  <Formula>
C10 H15 N O4

>  <MolecularWeight>
213.23

>  <ModifiedDate>
2020-06-17

>  <Parent>


>  <OneLetterCode>


>  <SubcomponentList>


>  <AmbiguousFlag>
N

>  <InChI>
InChI=1S/C10H15NO4/c1-5(2)7-4-11-9(10(14)15)6(7)3-8(12)13/h6-7,9,11H,1,3-4H2,2H3,(H,12,13)(H,14,15)/t6-,7+,9-/m0/s1

>  <InChIKey>
VLSMHEGGTFMBBZ-OOZYFLPDSA-N

>  <SMILES>
CC(=C)[C@H]1CN[C@@H]([C@H]1CC(=O)O)C(=O)O

$$$$
