2VMD_MBG_A_501
  RCSB PDB08012018033D
Coordinates from PDB:2VMD:A:501 Model:1 without hydrogens
 13 13  0  0  0  0            999 V2000
    3.3110   14.6140    7.8260   C 0  0  0  0  0  0  0  0  0  0  0  0
    2.6900   14.4450    9.2290   C 0  0  0  0  0  0  0  0  0  0  0  0
    3.6770   13.7030   10.1200   C 0  0  0  0  0  0  0  0  0  0  0  0
    4.0870   12.3720    9.4750   C 0  0  0  0  0  0  0  0  0  0  0  0
    4.5740   12.6390    8.0420   C 0  0  0  0  0  0  0  0  0  0  0  0
    4.9420   11.3410    7.3350   C 0  0  0  0  0  0  0  0  0  0  0  0
    1.0980   15.3950    7.2860   C 0  0  0  0  0  0  0  0  0  0  0  0
    2.5080   15.4000    6.9170   O 0  0  0  0  0  0  0  0  0  0  0  0
    2.3660   15.6820    9.8740   O 0  0  0  0  0  0  0  0  0  0  0  0
    3.1090   13.5360   11.4290   O 0  0  0  0  0  0  0  0  0  0  0  0
    2.9640   11.4730    9.4590   O 0  0  0  0  0  0  0  0  0  0  0  0
    3.5610   13.2900    7.2690   O 0  0  0  0  0  0  0  0  0  0  0  0
    5.6630   11.6480    6.1320   O 0  0  0  0  0  0  0  0  0  0  0  0
  1  2  1  0  0  0  0
  1  8  1  0  0  0  0
  1 12  1  0  0  0  0
  2  3  1  0  0  0  0
  2  9  1  0  0  0  0
  3  4  1  0  0  0  0
  3 10  1  0  0  0  0
  4  5  1  0  0  0  0
  4 11  1  0  0  0  0
  5  6  1  0  0  0  0
  5 12  1  0  0  0  0
  6 13  1  0  0  0  0
  7  8  1  0  0  0  0
M  END
>  <InstanceId>
2VMD_MBG_A_501

>  <ChemCompId>
MBG

>  <PdbId>
2VMD

>  <ChainId>
A

>  <ResidueNumber>
501

>  <InsertionCode>


>  <Model>
1

>  <AltIds>


>  <MissingHeavyAtoms>
0

>  <ObservedFormula>
C7 O6

>  <Name>
methyl beta-D-galactopyranoside

>  <SystematicName>
(2R,3R,4S,5R,6R)-2-(hydroxymethyl)-6-methoxy-oxane-3,4,5-triol

>  <Synonyms>
METHYL-BETA-GALACTOSE; methyl beta-D-galactoside; methyl D-galactoside; methyl galactoside

>  <Type>
D-saccharide

>  <Formula>
C7 H14 O6

>  <MolecularWeight>
194.182

>  <ModifiedDate>
2020-07-17

>  <Parent>
GAL

>  <OneLetterCode>


>  <SubcomponentList>


>  <AmbiguousFlag>
N

>  <InChI>
InChI=1S/C7H14O6/c1-12-7-6(11)5(10)4(9)3(2-8)13-7/h3-11H,2H2,1H3/t3-,4+,5+,6-,7-/m1/s1

>  <InChIKey>
HOVAGTYPODGVJG-VOQCIKJUSA-N

>  <SMILES>
CO[C@H]1[C@@H]([C@H]([C@H]([C@H](O1)CO)O)O)O

$$$$
