6CSR_BHO_A_804
  RCSB PDB08022004173D
Coordinates from PDB:6CSR:A:804 Model:1 without hydrogens
 10 10  0  0  0  0            999 V2000
   -8.8180   -3.4890   17.7910   C 0  0  0  0  0  0  0  0  0  0  0  0
   -9.2660   -4.5670   17.0120   C 0  0  0  0  0  0  0  0  0  0  0  0
   -8.4450   -5.1360   16.0250   C 0  0  0  0  0  0  0  0  0  0  0  0
   -7.1670   -4.6450   15.7750   C 0  0  0  0  0  0  0  0  0  0  0  0
   -6.7040   -3.5780   16.5450   C 0  0  0  0  0  0  0  0  0  0  0  0
   -7.5240   -3.0200   17.5400   C 0  0  0  0  0  0  0  0  0  0  0  0
   -9.6830   -2.8600   18.8590   C 0  0  0  0  0  0  0  0  0  0  0  0
   -9.1880   -2.4060   19.8840   O 0  0  0  0  0  0  0  0  0  0  0  0
  -11.0720   -2.7770   18.6970   N 0  0  0  0  0  0  0  0  0  0  0  0
  -11.7750   -2.1890   19.7230   O 0  0  0  0  0  0  0  0  0  0  0  0
  1  2  2  0  0  0  0
  1  6  1  0  0  0  0
  1  7  1  0  0  0  0
  2  3  1  0  0  0  0
  3  4  2  0  0  0  0
  4  5  1  0  0  0  0
  5  6  2  0  0  0  0
  7  8  2  0  0  0  0
  7  9  1  0  0  0  0
  9 10  1  0  0  0  0
M  END
>  <InstanceId>
6CSR_BHO_A_804

>  <ChemCompId>
BHO

>  <PdbId>
6CSR

>  <ChainId>
A

>  <ResidueNumber>
804

>  <InsertionCode>


>  <Model>
1

>  <AltIds>


>  <MissingHeavyAtoms>
0

>  <ObservedFormula>
C7 N O2

>  <Name>
BENZHYDROXAMIC ACID

>  <SystematicName>
N-hydroxybenzamide

>  <Synonyms>


>  <Type>
NON-POLYMER

>  <Formula>
C7 H7 N O2

>  <MolecularWeight>
137.136

>  <ModifiedDate>
2011-06-04

>  <Parent>


>  <OneLetterCode>


>  <SubcomponentList>


>  <AmbiguousFlag>
N

>  <InChI>
InChI=1S/C7H7NO2/c9-7(8-10)6-4-2-1-3-5-6/h1-5,10H,(H,8,9)

>  <InChIKey>
VDEUYMSGMPQMIK-UHFFFAOYSA-N

>  <SMILES>
c1ccc(cc1)C(=O)NO

$$$$
