2XBP_ATP_A_1114
  RCSB PDB08012018143D
Coordinates from PDB:2XBP:A:1114 Model:1 without hydrogens
 31 33  0  0  0  0            999 V2000
   47.5150  -18.9310   58.8850   P 0  0  0  0  0  0  0  0  0  0  0  0
   47.5810  -19.9710   57.8100   O 0  0  0  0  0  0  0  0  0  0  0  0
   48.0950  -19.3750   60.1840   O 0  0  0  0  0  0  0  0  0  0  0  0
   47.9800  -17.5680   58.4340   O 0  0  0  0  0  0  0  0  0  0  0  0
   45.1140  -17.4420   59.6570   P 0  0  0  0  0  0  0  0  0  0  0  0
   46.0610  -16.4100   60.1810   O 0  0  0  0  0  0  0  0  0  0  0  0
   44.0290  -17.8890   60.5570   O 0  0  0  0  0  0  0  0  0  0  0  0
   45.8940  -18.7500   59.1770   O 0  0  0  0  0  0  0  0  0  0  0  0
   45.1880  -16.2620   57.0200   P 0  0  0  0  0  0  0  0  0  0  0  0
   46.2940  -15.3740   57.5120   O 0  0  0  0  0  0  0  0  0  0  0  0
   45.5110  -17.2770   56.0280   O 0  0  0  0  0  0  0  0  0  0  0  0
   44.4570  -16.8920   58.3160   O 0  0  0  0  0  0  0  0  0  0  0  0
   43.9820  -15.3270   56.5450   O 0  0  0  0  0  0  0  0  0  0  0  0
   43.8560  -15.0490   55.1210   C 0  0  0  0  0  0  0  0  0  0  0  0
   42.8570  -13.9270   54.9590   C 0  0  0  0  0  0  0  0  0  0  0  0
   41.5550  -14.3860   55.3620   O 0  0  0  0  0  0  0  0  0  0  0  0
   43.0720  -12.6490   55.7260   C 0  0  0  0  0  0  0  0  0  0  0  0
   44.0470  -11.8040   55.1740   O 0  0  0  0  0  0  0  0  0  0  0  0
   41.7030  -12.0590   55.7580   C 0  0  0  0  0  0  0  0  0  0  0  0
   41.4040  -11.4730   54.4930   O 0  0  0  0  0  0  0  0  0  0  0  0
   40.8470  -13.2980   55.9610   C 0  0  0  0  0  0  0  0  0  0  0  0
   40.5480  -13.6320   57.3600   N 0  0  0  0  0  0  0  0  0  0  0  0
   41.2830  -14.4650   58.1730   C 0  0  0  0  0  0  0  0  0  0  0  0
   40.7010  -14.6240   59.3540   N 0  0  0  0  0  0  0  0  0  0  0  0
   39.5390  -13.8680   59.2720   C 0  0  0  0  0  0  0  0  0  0  0  0
   38.4240  -13.6800   60.1420   C 0  0  0  0  0  0  0  0  0  0  0  0
   38.3500  -14.2640   61.3540   N 0  0  0  0  0  0  0  0  0  0  0  0
   37.4180  -12.8730   59.7410   N 0  0  0  0  0  0  0  0  0  0  0  0
   37.4640  -12.3380   58.5120   C 0  0  0  0  0  0  0  0  0  0  0  0
   38.4520  -12.4560   57.6010   N 0  0  0  0  0  0  0  0  0  0  0  0
   39.4600  -13.2550   58.0340   C 0  0  0  0  0  0  0  0  0  0  0  0
  1  2  2  0  0  0  0
  1  3  1  0  0  0  0
  1  4  1  0  0  0  0
  1  8  1  0  0  0  0
  5  6  2  0  0  0  0
  5  7  1  0  0  0  0
  5  8  1  0  0  0  0
  5 12  1  0  0  0  0
  9 10  2  0  0  0  0
  9 11  1  0  0  0  0
  9 12  1  0  0  0  0
  9 13  1  0  0  0  0
 13 14  1  0  0  0  0
 14 15  1  0  0  0  0
 15 16  1  0  0  0  0
 15 17  1  0  0  0  0
 16 21  1  0  0  0  0
 17 18  1  0  0  0  0
 17 19  1  0  0  0  0
 19 20  1  0  0  0  0
 19 21  1  0  0  0  0
 21 22  1  0  0  0  0
 22 23  1  0  0  0  0
 22 31  1  0  0  0  0
 23 24  2  0  0  0  0
 24 25  1  0  0  0  0
 25 26  1  0  0  0  0
 25 31  2  0  0  0  0
 26 27  1  0  0  0  0
 26 28  2  0  0  0  0
 28 29  1  0  0  0  0
 29 30  2  0  0  0  0
 30 31  1  0  0  0  0
M  END
>  <InstanceId>
2XBP_ATP_A_1114

>  <ChemCompId>
ATP

>  <PdbId>
2XBP

>  <ChainId>
A

>  <ResidueNumber>
1114

>  <InsertionCode>


>  <Model>
1

>  <AltIds>


>  <MissingHeavyAtoms>
0

>  <ObservedFormula>
C10 N5 O13 P3

>  <Name>
ADENOSINE-5'-TRIPHOSPHATE

>  <SystematicName>
[[(2R,3S,4R,5R)-5-(6-aminopurin-9-yl)-3,4-dihydroxy-oxolan-2-yl]methoxy-hydroxy-phosphoryl] phosphono hydrogen phosphate

>  <Synonyms>


>  <Type>
NON-POLYMER

>  <Formula>
C10 H16 N5 O13 P3

>  <MolecularWeight>
507.181

>  <ModifiedDate>
2011-06-04

>  <Parent>


>  <OneLetterCode>


>  <SubcomponentList>


>  <AmbiguousFlag>
N

>  <InChI>
InChI=1S/C10H16N5O13P3/c11-8-5-9(13-2-12-8)15(3-14-5)10-7(17)6(16)4(26-10)1-25-30(21,22)28-31(23,24)27-29(18,19)20/h2-4,6-7,10,16-17H,1H2,(H,21,22)(H,23,24)(H2,11,12,13)(H2,18,19,20)/t4-,6-,7-,10-/m1/s1

>  <InChIKey>
ZKHQWZAMYRWXGA-KQYNXXCUSA-N

>  <SMILES>
c1nc(c2c(n1)n(cn2)[C@H]3[C@@H]([C@@H]([C@H](O3)CO[P@@](=O)(O)O[P@](=O)(O)OP(=O)(O)O)O)O)N

$$$$
