1QAN_SAH_A_501
  RCSB PDB08012015473D
Coordinates from PDB:1QAN:A:501 Model:1 without hydrogens
 26 28  0  0  0  0            999 V2000
   12.0740   37.0810   22.6250   N 0  0  0  0  0  0  0  0  0  0  0  0
   12.9000   38.1910   22.1850   C 0  0  0  0  0  0  0  0  0  0  0  0
   14.3410   37.8170   21.7690   C 0  0  0  0  0  0  0  0  0  0  0  0
   14.7660   36.3330   21.8170   C 0  0  0  0  0  0  0  0  0  0  0  0
   16.5060   36.0930   21.2720   S 0  0  0  0  0  0  0  0  0  0  0  0
   12.3300   38.9740   20.9810   C 0  0  0  0  0  0  0  0  0  0  0  0
   12.0590   38.3160   19.9330   O 0  0  0  0  0  0  0  0  0  0  0  0
   12.1820   40.2360   21.1140   O 0  0  0  0  0  0  0  0  0  0  0  0
   17.3250   35.3590   22.7440   C 0  0  0  0  0  0  0  0  0  0  0  0
   17.1900   36.1740   24.0520   C 0  0  0  0  0  0  0  0  0  0  0  0
   17.4970   35.3820   25.2130   O 0  0  0  0  0  0  0  0  0  0  0  0
   18.0460   37.4530   24.1750   C 0  0  0  0  0  0  0  0  0  0  0  0
   17.3440   38.5690   24.6940   O 0  0  0  0  0  0  0  0  0  0  0  0
   19.2330   36.9560   24.9680   C 0  0  0  0  0  0  0  0  0  0  0  0
   19.8650   37.9860   25.7150   O 0  0  0  0  0  0  0  0  0  0  0  0
   18.5400   36.0040   25.9740   C 0  0  0  0  0  0  0  0  0  0  0  0
   19.4110   34.9330   26.5080   N 0  0  0  0  0  0  0  0  0  0  0  0
   20.4170   34.2340   25.9390   C 0  0  0  0  0  0  0  0  0  0  0  0
   20.9900   33.3320   26.7510   N 0  0  0  0  0  0  0  0  0  0  0  0
   20.3060   33.4260   27.9560   C 0  0  0  0  0  0  0  0  0  0  0  0
   20.3540   32.8200   29.2090   C 0  0  0  0  0  0  0  0  0  0  0  0
   21.2690   31.8490   29.4890   N 0  0  0  0  0  0  0  0  0  0  0  0
   19.4820   33.1840   30.2110   N 0  0  0  0  0  0  0  0  0  0  0  0
   18.5680   34.1590   29.9730   C 0  0  0  0  0  0  0  0  0  0  0  0
   18.4470   34.7980   28.7730   N 0  0  0  0  0  0  0  0  0  0  0  0
   19.3230   34.4390   27.8010   C 0  0  0  0  0  0  0  0  0  0  0  0
  1  2  1  0  0  0  0
  2  3  1  0  0  0  0
  2  6  1  0  0  0  0
  3  4  1  0  0  0  0
  4  5  1  0  0  0  0
  5  9  1  0  0  0  0
  6  7  2  0  0  0  0
  6  8  1  0  0  0  0
  9 10  1  0  0  0  0
 10 11  1  0  0  0  0
 10 12  1  0  0  0  0
 11 16  1  0  0  0  0
 12 13  1  0  0  0  0
 12 14  1  0  0  0  0
 14 15  1  0  0  0  0
 14 16  1  0  0  0  0
 16 17  1  0  0  0  0
 17 18  1  0  0  0  0
 17 26  1  0  0  0  0
 18 19  2  0  0  0  0
 19 20  1  0  0  0  0
 20 21  1  0  0  0  0
 20 26  2  0  0  0  0
 21 22  1  0  0  0  0
 21 23  2  0  0  0  0
 23 24  1  0  0  0  0
 24 25  2  0  0  0  0
 25 26  1  0  0  0  0
M  END
>  <InstanceId>
1QAN_SAH_A_501

>  <ChemCompId>
SAH

>  <PdbId>
1QAN

>  <ChainId>
A

>  <ResidueNumber>
501

>  <InsertionCode>


>  <Model>
1

>  <AltIds>


>  <MissingHeavyAtoms>
0

>  <ObservedFormula>
C14 N6 O5 S

>  <Name>
S-ADENOSYL-L-HOMOCYSTEINE

>  <SystematicName>
(2S)-2-amino-4-[[(2S,3S,4R,5R)-5-(6-aminopurin-9-yl)-3,4-dihydroxy-oxolan-2-yl]methylsulfanyl]butanoic acid

>  <Synonyms>


>  <Type>
L-PEPTIDE LINKING

>  <Formula>
C14 H20 N6 O5 S

>  <MolecularWeight>
384.411

>  <ModifiedDate>
2011-06-04

>  <Parent>
CYS

>  <OneLetterCode>
C

>  <SubcomponentList>


>  <AmbiguousFlag>
N

>  <InChI>
InChI=1S/C14H20N6O5S/c15-6(14(23)24)1-2-26-3-7-9(21)10(22)13(25-7)20-5-19-8-11(16)17-4-18-12(8)20/h4-7,9-10,13,21-22H,1-3,15H2,(H,23,24)(H2,16,17,18)/t6-,7+,9+,10+,13+/m0/s1

>  <InChIKey>
ZJUKTBDSGOFHSH-WFMPWKQPSA-N

>  <SMILES>
c1nc(c2c(n1)n(cn2)[C@H]3[C@@H]([C@@H]([C@H](O3)CSCC[C@@H](C(=O)O)N)O)O)N

$$$$
