5LLI_6Z3_C_301
  RCSB PDB08022002133D
Coordinates from PDB:5LLI:C:301 Model:1 without hydrogens
 37 40  0  0  0  0            999 V2000
   10.3760   57.5870   97.6990   C 0  0  0  0  0  0  0  0  0  0  0  0
    9.9170   58.3050   96.4330   C 0  0  0  0  0  0  0  0  0  0  0  0
   10.2660   56.8510   96.3760   C 0  0  0  0  0  0  0  0  0  0  0  0
    9.2190   56.0370   96.2680   C 0  0  0  0  0  0  0  0  0  0  0  0
    8.4820   55.4740   96.1840   N 0  0  0  0  0  0  0  0  0  0  0  0
   11.5640   56.3750   95.7090   C 0  0  0  0  0  0  0  0  0  0  0  0
   12.6020   56.9910   95.9240   O 0  0  0  0  0  0  0  0  0  0  0  0
   11.4880   55.2620   94.9670   N 0  0  0  0  0  0  0  0  0  0  0  0
   12.6440   54.6940   94.2740   C 0  0  0  0  0  0  0  0  0  0  0  0
   12.8740   53.2600   94.7870   C 0  0  0  0  0  0  0  0  0  0  0  0
   11.5640   52.4460   94.8670   C 0  0  0  0  0  0  0  0  0  0  0  0
   13.4270   53.3560   96.2110   C 0  0  0  0  0  0  0  0  0  0  0  0
   13.9000   52.4980   93.9130   C 0  0  0  0  0  0  0  0  0  0  0  0
   12.2890   54.7310   92.7800   C 0  0  0  0  0  0  0  0  0  0  0  0
   11.1320   54.5270   92.4450   O 0  0  0  0  0  0  0  0  0  0  0  0
   13.2660   55.0160   91.9010   N 0  0  0  0  0  0  0  0  0  0  0  0
   14.6840   55.3170   92.1970   C 0  0  0  0  0  0  0  0  0  0  0  0
   15.1540   56.0940   90.9830   C 0  0  0  0  0  0  0  0  0  0  0  0
   14.7850   57.4770   91.0790   O 0  0  0  0  0  0  0  0  0  0  0  0
   14.4030   55.4690   89.8420   C 0  0  0  0  0  0  0  0  0  0  0  0
   13.0450   55.1110   90.4150   C 0  0  0  0  0  0  0  0  0  0  0  0
   12.6330   53.8980   89.8240   C 0  0  0  0  0  0  0  0  0  0  0  0
   13.1110   52.8260   90.2010   O 0  0  0  0  0  0  0  0  0  0  0  0
   11.7580   54.0290   88.7960   N 0  0  0  0  0  0  0  0  0  0  0  0
   11.2750   52.8900   87.9710   C 0  0  0  0  0  0  0  0  0  0  0  0
   12.0740   52.6680   86.7960   C 0  0  0  0  0  0  0  0  0  0  0  0
   12.9080   53.6480   86.2430   C 0  0  0  0  0  0  0  0  0  0  0  0
   13.6780   53.3930   85.0920   C 0  0  0  0  0  0  0  0  0  0  0  0
   12.0400   51.4320   86.1410   C 0  0  0  0  0  0  0  0  0  0  0  0
   12.8140   51.1830   85.0020   C 0  0  0  0  0  0  0  0  0  0  0  0
   13.6380   52.1700   84.4470   C 0  0  0  0  0  0  0  0  0  0  0  0
   14.3800   51.9620   83.3480   C 0  0  0  0  0  0  0  0  0  0  0  0
   15.9870   52.4050   83.1140   S 0  0  0  0  0  0  0  0  0  0  0  0
   16.0970   51.7980   81.5870   C 0  0  0  0  0  0  0  0  0  0  0  0
   14.9160   51.2780   81.2440   N 0  0  0  0  0  0  0  0  0  0  0  0
   13.9880   51.3760   82.2060   C 0  0  0  0  0  0  0  0  0  0  0  0
   12.6050   50.8260   81.9580   C 0  0  0  0  0  0  0  0  0  0  0  0
 35 34  2  0  0  0  0
 35 36  1  0  0  0  0
 34 33  1  0  0  0  0
 37 36  1  0  0  0  0
 36 32  2  0  0  0  0
 33 32  1  0  0  0  0
 32 31  1  0  0  0  0
 31 30  2  0  0  0  0
 31 28  1  0  0  0  0
 30 29  1  0  0  0  0
 28 27  2  0  0  0  0
 29 26  2  0  0  0  0
 27 26  1  0  0  0  0
 26 25  1  0  0  0  0
 25 24  1  0  0  0  0
 24 22  1  0  0  0  0
 22 23  2  0  0  0  0
 22 21  1  0  0  0  0
 20 21  1  0  0  0  0
 20 18  1  0  0  0  0
 21 16  1  0  0  0  0
 18 19  1  0  0  0  0
 18 17  1  0  0  0  0
 16 17  1  0  0  0  0
 16 14  1  0  0  0  0
 15 14  2  0  0  0  0
 14  9  1  0  0  0  0
 13 10  1  0  0  0  0
  9 10  1  0  0  0  0
  9  8  1  0  0  0  0
 10 11  1  0  0  0  0
 10 12  1  0  0  0  0
  8  6  1  0  0  0  0
  6  7  2  0  0  0  0
  6  3  1  0  0  0  0
  5  4  3  0  0  0  0
  4  3  1  0  0  0  0
  3  2  1  0  0  0  0
  3  1  1  0  0  0  0
  2  1  1  0  0  0  0
M  END
>  <InstanceId>
5LLI_6Z3_C_301

>  <ChemCompId>
6Z3

>  <PdbId>
5LLI

>  <ChainId>
C

>  <ResidueNumber>
301

>  <InsertionCode>


>  <Model>
1

>  <AltIds>


>  <MissingHeavyAtoms>
0

>  <ObservedFormula>
C27 N5 O4 S

>  <Name>
(2~{S},4~{R})-1-[(2~{S})-2-[(1-cyanocyclopropyl)carbonylamino]-3,3-dimethyl-butanoyl]-~{N}-[[4-(4-methyl-1,3-thiazol-5-yl)phenyl]methyl]-4-oxidanyl-pyrrolidine-2-carboxamide

>  <SystematicName>
(2~{S},4~{R})-1-[(2~{S})-2-[(1-cyanocyclopropyl)carbonylamino]-3,3-dimethyl-butanoyl]-~{N}-[[4-(4-methyl-1,3-thiazol-5-yl)phenyl]methyl]-4-oxidanyl-pyrrolidine-2-carboxamide

>  <Synonyms>


>  <Type>
NON-POLYMER

>  <Formula>
C27 H33 N5 O4 S

>  <MolecularWeight>
523.647

>  <ModifiedDate>
2016-11-04

>  <Parent>


>  <OneLetterCode>


>  <SubcomponentList>


>  <AmbiguousFlag>
N

>  <InChI>
InChI=1S/C27H33N5O4S/c1-16-21(37-15-30-16)18-7-5-17(6-8-18)12-29-23(34)20-11-19(33)13-32(20)24(35)22(26(2,3)4)31-25(36)27(14-28)9-10-27/h5-8,15,19-20,22,33H,9-13H2,1-4H3,(H,29,34)(H,31,36)/t19-,20+,22-/m1/s1

>  <InChIKey>
NDVQUNZCNAMROD-RZUBCFFCSA-N

>  <SMILES>
Cc1c(scn1)c2ccc(cc2)CNC(=O)[C@@H]3C[C@H](CN3C(=O)[C@H](C(C)(C)C)NC(=O)C4(CC4)C#N)O

$$$$
