3G3R_ANP_A_1000
  RCSB PDB08012019043D
Coordinates from PDB:3G3R:A:1000 Model:1 without hydrogens
 13 12  0  0  0  0            999 V2000
   13.4240   16.9860   15.7500   P 0  0  0  0  0  0  0  0  0  0  0  0
   13.4640   18.3830   15.2750   O 0  0  0  0  0  0  0  0  0  0  0  0
   13.9110   17.0400   17.2770   O 0  0  0  0  0  0  0  0  0  0  0  0
   14.4880   15.9260   15.2520   O 0  0  0  0  0  0  0  0  0  0  0  0
   11.5650   14.9580   14.8860   P 0  0  0  0  0  0  0  0  0  0  0  0
   10.0120   14.8930   15.1850   O 0  0  0  0  0  0  0  0  0  0  0  0
   12.0990   15.1990   13.5280   O 0  0  0  0  0  0  0  0  0  0  0  0
   11.8990   16.3360   15.7360   N 0  0  0  0  0  0  0  0  0  0  0  0
   12.5900   12.2090   14.9600   P 0  0  0  0  0  0  0  0  0  0  0  0
   13.4870   12.6320   13.7440   O 0  0  0  0  0  0  0  0  0  0  0  0
   11.5480   11.2950   14.2310   O 0  0  0  0  0  0  0  0  0  0  0  0
   12.0370   13.5780   15.5050   O 0  0  0  0  0  0  0  0  0  0  0  0
   13.2570   11.5830   16.1130   O 0  0  0  0  0  0  0  0  0  0  0  0
  1  2  2  0  0  0  0
  1  3  1  0  0  0  0
  1  4  1  0  0  0  0
  1  8  1  0  0  0  0
  5  6  2  0  0  0  0
  5  7  1  0  0  0  0
  5  8  1  0  0  0  0
  5 12  1  0  0  0  0
  9 10  2  0  0  0  0
  9 11  1  0  0  0  0
  9 12  1  0  0  0  0
  9 13  1  0  0  0  0
M  END
>  <InstanceId>
3G3R_ANP_A_1000

>  <ChemCompId>
ANP

>  <PdbId>
3G3R

>  <ChainId>
A

>  <ResidueNumber>
1000

>  <InsertionCode>


>  <Model>
1

>  <AltIds>


>  <MissingHeavyAtoms>
18

>  <ObservedFormula>
N O9 P3

>  <Name>
PHOSPHOAMINOPHOSPHONIC ACID-ADENYLATE ESTER

>  <SystematicName>
[[[[(2R,3S,4R,5R)-5-(6-aminopurin-9-yl)-3,4-dihydroxy-oxolan-2-yl]methoxy-hydroxy-phosphoryl]oxy-hydroxy-phosphoryl]amino]phosphonic acid

>  <Synonyms>


>  <Type>
NON-POLYMER

>  <Formula>
C10 H17 N6 O12 P3

>  <MolecularWeight>
506.196

>  <ModifiedDate>
2011-06-04

>  <Parent>


>  <OneLetterCode>


>  <SubcomponentList>


>  <AmbiguousFlag>
N

>  <InChI>
InChI=1S/C10H17N6O12P3/c11-8-5-9(13-2-12-8)16(3-14-5)10-7(18)6(17)4(27-10)1-26-31(24,25)28-30(22,23)15-29(19,20)21/h2-4,6-7,10,17-18H,1H2,(H,24,25)(H2,11,12,13)(H4,15,19,20,21,22,23)/t4-,6-,7-,10-/m1/s1

>  <InChIKey>
PVKSNHVPLWYQGJ-KQYNXXCUSA-N

>  <SMILES>
c1nc(c2c(n1)n(cn2)[C@H]3[C@@H]([C@@H]([C@H](O3)CO[P@](=O)(O)O[P@@](=O)(NP(=O)(O)O)O)O)O)N

$$$$
