2F81_017_A_302
  RCSB PDB08012016573D
Coordinates from PDB:2F81:A:302 Model:1 without hydrogens
 38 41  0  0  0  0            999 V2000
    8.1990   57.2630   14.1130   N 0  0  0  0  0  0  0  0  0  0  0  0
    8.6730   58.4230   14.5710   C 0  0  0  0  0  0  0  0  0  0  0  0
   10.0100   58.6630   14.2710   C 0  0  0  0  0  0  0  0  0  0  0  0
   10.5810   59.8330   14.7070   C 0  0  0  0  0  0  0  0  0  0  0  0
    9.7660   60.7150   15.4280   C 0  0  0  0  0  0  0  0  0  0  0  0
    8.4290   60.4810   15.7340   C 0  0  0  0  0  0  0  0  0  0  0  0
    7.8370   59.2820   15.2920   C 0  0  0  0  0  0  0  0  0  0  0  0
   10.6440   62.2180   15.9530   S 0  0  0  0  0  0  0  0  0  0  0  0
   11.8530   62.4980   15.0290   O 0  0  0  0  0  0  0  0  0  0  0  0
    9.6620   63.3930   16.1790   O 0  0  0  0  0  0  0  0  0  0  0  0
   11.3060   61.8570   17.5900   N 0  0  0  0  0  0  0  0  0  0  0  0
   10.2860   61.5940   18.6410   C 0  0  0  0  0  0  0  0  0  0  0  0
   10.7920   62.1880   19.9860   C 0  0  0  0  0  0  0  0  0  0  0  0
   10.7790   63.6990   19.8520   C 0  0  0  0  0  0  0  0  0  0  0  0
    9.8740   61.7390   21.0950   C 0  0  0  0  0  0  0  0  0  0  0  0
   12.6140   61.1770   17.5660   C 0  0  0  0  0  0  0  0  0  0  0  0
   13.7530   62.0970   18.1130   C 0  0  0  0  0  0  0  0  0  0  0  0
   14.9180   61.2810   18.3050   O 0  0  0  0  0  0  0  0  0  0  0  0
   14.1140   63.2160   17.0780   C 0  0  0  0  0  0  0  0  0  0  0  0
   14.9710   64.1310   17.7720   N 0  0  0  0  0  0  0  0  0  0  0  0
   14.6300   65.3880   18.1050   C 0  0  0  0  0  0  0  0  0  0  0  0
   13.5360   65.9490   17.8240   O 0  0  0  0  0  0  0  0  0  0  0  0
   15.7420   65.9160   18.8150   O 0  0  0  0  0  0  0  0  0  0  0  0
   15.6310   67.3850   19.0220   C 0  0  0  0  0  0  0  0  0  0  0  0
   16.2760   67.5730   20.4170   C 0  0  0  0  0  0  0  0  0  0  0  0
   17.7030   67.4920   20.2200   O 0  0  0  0  0  0  0  0  0  0  0  0
   17.9450   67.9230   18.8900   C 0  0  0  0  0  0  0  0  0  0  0  0
   18.8550   67.0570   18.1820   O 0  0  0  0  0  0  0  0  0  0  0  0
   18.0780   66.5450   17.1070   C 0  0  0  0  0  0  0  0  0  0  0  0
   17.0330   67.6250   16.7630   C 0  0  0  0  0  0  0  0  0  0  0  0
   16.6820   68.1000   18.1650   C 0  0  0  0  0  0  0  0  0  0  0  0
   14.8240   62.7100   15.7830   C 0  0  0  0  0  0  0  0  0  0  0  0
   16.5910   64.3280   14.7970   C 0  0  0  0  0  0  0  0  0  0  0  0
   16.9590   65.4490   13.9880   C 0  0  0  0  0  0  0  0  0  0  0  0
   15.9410   66.1220   13.3210   C 0  0  0  0  0  0  0  0  0  0  0  0
   14.6090   65.7340   13.4210   C 0  0  0  0  0  0  0  0  0  0  0  0
   14.2890   64.6420   14.2180   C 0  0  0  0  0  0  0  0  0  0  0  0
   15.2590   63.9200   14.9130   C 0  0  0  0  0  0  0  0  0  0  0  0
  1  2  1  0  0  0  0
  2  3  2  0  0  0  0
  2  7  1  0  0  0  0
  3  4  1  0  0  0  0
  4  5  2  0  0  0  0
  5  6  1  0  0  0  0
  5  8  1  0  0  0  0
  6  7  2  0  0  0  0
  8  9  2  0  0  0  0
  8 10  2  0  0  0  0
  8 11  1  0  0  0  0
 11 12  1  0  0  0  0
 11 16  1  0  0  0  0
 12 13  1  0  0  0  0
 13 14  1  0  0  0  0
 13 15  1  0  0  0  0
 16 17  1  0  0  0  0
 17 18  1  0  0  0  0
 17 19  1  0  0  0  0
 19 20  1  0  0  0  0
 19 32  1  0  0  0  0
 20 21  1  0  0  0  0
 21 22  2  0  0  0  0
 21 23  1  0  0  0  0
 23 24  1  0  0  0  0
 24 25  1  0  0  0  0
 24 31  1  0  0  0  0
 25 26  1  0  0  0  0
 26 27  1  0  0  0  0
 27 28  1  0  0  0  0
 27 31  1  0  0  0  0
 28 29  1  0  0  0  0
 29 30  1  0  0  0  0
 30 31  1  0  0  0  0
 32 38  1  0  0  0  0
 33 34  2  0  0  0  0
 33 38  1  0  0  0  0
 34 35  1  0  0  0  0
 35 36  2  0  0  0  0
 36 37  1  0  0  0  0
 37 38  2  0  0  0  0
M  END
>  <InstanceId>
2F81_017_A_302

>  <ChemCompId>
017

>  <PdbId>
2F81

>  <ChainId>
A

>  <ResidueNumber>
302

>  <InsertionCode>


>  <Model>
1

>  <AltIds>


>  <MissingHeavyAtoms>
0

>  <ObservedFormula>
C27 N3 O7 S

>  <Name>
(3R,3AS,6AR)-HEXAHYDROFURO[2,3-B]FURAN-3-YL(1S,2R)-3-[[(4-AMINOPHENYL)SULFONYL](ISOBUTYL)AMINO]-1-BENZYL-2-HYDROXYPROPYLCARBAMATE

>  <SystematicName>
[(3R,3aS,6aR)-2,3,3a,4,5,6a-hexahydrofuro[2,3-b]furan-3-yl] N-[(2S,3R)-4-[(4-aminophenyl)sulfonyl-(2-methylpropyl)amino]-3-hydroxy-1-phenyl-butan-2-yl]carbamate

>  <Synonyms>
Darunavir; TMC114; UIC-94017

>  <Type>
NON-POLYMER

>  <Formula>
C27 H37 N3 O7 S

>  <MolecularWeight>
547.664

>  <ModifiedDate>
2020-05-22

>  <Parent>


>  <OneLetterCode>


>  <SubcomponentList>


>  <AmbiguousFlag>
N

>  <InChI>
InChI=1S/C27H37N3O7S/c1-18(2)15-30(38(33,34)21-10-8-20(28)9-11-21)16-24(31)23(14-19-6-4-3-5-7-19)29-27(32)37-25-17-36-26-22(25)12-13-35-26/h3-11,18,22-26,31H,12-17,28H2,1-2H3,(H,29,32)/t22-,23-,24+,25-,26+/m0/s1

>  <InChIKey>
CJBJHOAVZSMMDJ-HEXNFIEUSA-N

>  <SMILES>
CC(C)C[N@@](C[C@H]([C@H](Cc1ccccc1)NC(=O)O[C@H]2CO[C@@H]3[C@H]2CCO3)O)S(=O)(=O)c4ccc(cc4)N

$$$$
