1SDT_MK1_B_902
  RCSB PDB08012015563D
Coordinates from PDB:1SDT:B:902 Model:1 without hydrogens
 45 49  0  0  0  0            999 V2000
   23.3900   20.5370    2.9880   N 0  0  0  0  0  0  0  0  0  0  0  0
   23.4540   20.4130    4.4810   C 0  0  0  0  0  0  0  0  0  0  0  0
   24.4290   19.3630    4.9880   C 0  0  0  0  0  0  0  0  0  0  0  0
   24.4000   19.3790    6.4800   C 0  0  0  0  0  0  0  0  0  0  0  0
   23.3790   19.0220    7.0810   O 0  0  0  0  0  0  0  0  0  0  0  0
   25.5100   19.7920    7.0840   N 0  0  0  0  0  0  0  0  0  0  0  0
   25.6650   19.8940    8.5110   C 0  0  0  0  0  0  0  0  0  0  0  0
   27.0900   20.4650    8.7220   C 0  0  0  0  0  0  0  0  0  0  0  0
   25.5660   18.5900    9.0670   C 0  0  0  0  0  0  0  0  0  0  0  0
   24.7120   20.8320    9.0850   C 0  0  0  0  0  0  0  0  0  0  0  0
   23.9030   18.0630    4.4290   N 0  0  0  0  0  0  0  0  0  0  0  0
   23.8240   18.1050    2.9510   C 0  0  0  0  0  0  0  0  0  0  0  0
   23.0300   19.2800    2.4690   C 0  0  0  0  0  0  0  0  0  0  0  0
   24.7440   16.9360    4.7610   C 0  0  0  0  0  0  0  0  0  0  0  0
   23.8980   15.6800    5.0450   C 0  0  0  0  0  0  0  0  0  0  0  0
   24.6970   14.5980    4.7060   O 0  0  0  0  0  0  0  0  0  0  0  0
   23.4780   15.5640    6.5210   C 0  0  0  0  0  0  0  0  0  0  0  0
   22.5800   14.3360    6.8500   C 0  0  0  0  0  0  0  0  0  0  0  0
   22.4480   14.2260    8.3780   C 0  0  0  0  0  0  0  0  0  0  0  0
   21.4650   13.1890    8.7950   C 0  0  0  0  0  0  0  0  0  0  0  0
   21.6500   11.8650    8.4710   C 0  0  0  0  0  0  0  0  0  0  0  0
   20.7880   10.8820    8.9160   C 0  0  0  0  0  0  0  0  0  0  0  0
   19.6860   11.2710    9.6830   C 0  0  0  0  0  0  0  0  0  0  0  0
   19.4850   12.6030    9.9980   C 0  0  0  0  0  0  0  0  0  0  0  0
   20.3850   13.5700    9.5680   C 0  0  0  0  0  0  0  0  0  0  0  0
   21.2240   14.4900    6.2260   C 0  0  0  0  0  0  0  0  0  0  0  0
   20.5460   15.5200    6.3040   O 0  0  0  0  0  0  0  0  0  0  0  0
   20.7580   13.3900    5.6640   N 0  0  0  0  0  0  0  0  0  0  0  0
   19.3880   13.2060    5.3480   C 0  0  0  0  0  0  0  0  0  0  0  0
   18.7910   11.8560    5.6960   C 0  0  0  0  0  0  0  0  0  0  0  0
   19.6950   10.7930    5.3580   O 0  0  0  0  0  0  0  0  0  0  0  0
   17.5520   11.7290    4.8090   C 0  0  0  0  0  0  0  0  0  0  0  0
   17.9040   12.4140    3.5120   C 0  0  0  0  0  0  0  0  0  0  0  0
   17.4350   12.3500    2.2350   C 0  0  0  0  0  0  0  0  0  0  0  0
   18.0190   13.1800    1.2800   C 0  0  0  0  0  0  0  0  0  0  0  0
   19.0380   14.0690    1.5720   C 0  0  0  0  0  0  0  0  0  0  0  0
   19.5310   14.1560    2.8620   C 0  0  0  0  0  0  0  0  0  0  0  0
   19.0480   13.3900    3.8560   C 0  0  0  0  0  0  0  0  0  0  0  0
   22.4420   21.5980    2.6190   C 0  0  0  0  0  0  0  0  0  0  0  0
   22.7620   23.0540    2.9970   C 0  0  0  0  0  0  0  0  0  0  0  0
   23.8780   23.7120    2.4450   C 0  0  0  0  0  0  0  0  0  0  0  0
   24.2560   25.0500    2.6910   N 0  0  0  0  0  0  0  0  0  0  0  0
   23.3550   25.6440    3.5760   C 0  0  0  0  0  0  0  0  0  0  0  0
   22.2270   25.0720    4.1520   C 0  0  0  0  0  0  0  0  0  0  0  0
   21.9200   23.7500    3.8660   C 0  0  0  0  0  0  0  0  0  0  0  0
  1  2  1  0  0  0  0
  1 13  1  0  0  0  0
  1 39  1  0  0  0  0
  2  3  1  0  0  0  0
  3  4  1  0  0  0  0
  3 11  1  0  0  0  0
  4  5  2  0  0  0  0
  4  6  1  0  0  0  0
  6  7  1  0  0  0  0
  7  8  1  0  0  0  0
  7  9  1  0  0  0  0
  7 10  1  0  0  0  0
 11 12  1  0  0  0  0
 11 14  1  0  0  0  0
 12 13  1  0  0  0  0
 14 15  1  0  0  0  0
 15 16  1  0  0  0  0
 15 17  1  0  0  0  0
 17 18  1  0  0  0  0
 18 19  1  0  0  0  0
 18 26  1  0  0  0  0
 19 20  1  0  0  0  0
 20 21  2  0  0  0  0
 20 25  1  0  0  0  0
 21 22  1  0  0  0  0
 22 23  2  0  0  0  0
 23 24  1  0  0  0  0
 24 25  2  0  0  0  0
 26 27  2  0  0  0  0
 26 28  1  0  0  0  0
 28 29  1  0  0  0  0
 29 30  1  0  0  0  0
 29 38  1  0  0  0  0
 30 31  1  0  0  0  0
 30 32  1  0  0  0  0
 32 33  1  0  0  0  0
 33 34  2  0  0  0  0
 33 38  1  0  0  0  0
 34 35  1  0  0  0  0
 35 36  2  0  0  0  0
 36 37  1  0  0  0  0
 37 38  2  0  0  0  0
 39 40  1  0  0  0  0
 40 41  1  0  0  0  0
 40 45  2  0  0  0  0
 41 42  2  0  0  0  0
 42 43  1  0  0  0  0
 43 44  2  0  0  0  0
 44 45  1  0  0  0  0
M  END
>  <InstanceId>
1SDT_MK1_B_902

>  <ChemCompId>
MK1

>  <PdbId>
1SDT

>  <ChainId>
B

>  <ResidueNumber>
902

>  <InsertionCode>


>  <Model>
1

>  <AltIds>


>  <MissingHeavyAtoms>
0

>  <ObservedFormula>
C36 N5 O4

>  <Name>
N-[2(R)-HYDROXY-1(S)-INDANYL]-5-[(2(S)-TERTIARY BUTYLAMINOCARBONYL)-4(3-PYRIDYLMETHYL)PIPERAZINO]-4(S)-HYDROXY-2(R)-PHENYLMETHYLPENTANAMIDE

>  <SystematicName>
(1S,2S,4R)-N-tert-butyl-1-[(2S,4R)-2-hydroxy-5-[[(1S,2R)-2-hydroxy-2,3-dihydro-1H-inden-1-yl]amino]-5-oxo-4-(phenylmethyl)pentyl]-4-(pyridin-3-ylmethyl)piperazine-2-carboxamide

>  <Synonyms>
INDINAVIR

>  <Type>
NON-POLYMER

>  <Formula>
C36 H47 N5 O4

>  <MolecularWeight>
613.789

>  <ModifiedDate>
2020-06-17

>  <Parent>


>  <OneLetterCode>


>  <SubcomponentList>


>  <AmbiguousFlag>
N

>  <InChI>
InChI=1S/C36H47N5O4/c1-36(2,3)39-35(45)31-24-40(22-26-12-9-15-37-21-26)16-17-41(31)23-29(42)19-28(18-25-10-5-4-6-11-25)34(44)38-33-30-14-8-7-13-27(30)20-32(33)43/h4-15,21,28-29,31-33,42-43H,16-20,22-24H2,1-3H3,(H,38,44)(H,39,45)/t28-,29+,31+,32-,33+/m1/s1

>  <InChIKey>
CBVCZFGXHXORBI-PXQQMZJSSA-N

>  <SMILES>
CC(C)(C)NC(=O)[C@@H]1C[N@@](CC[N@]1C[C@H](C[C@@H](Cc2ccccc2)C(=O)N[C@H]3c4ccccc4C[C@H]3O)O)Cc5cccnc5

$$$$
