4ZEC_C84_A_601
  RCSB PDB08022000373D
Coordinates from PDB:4ZEC:A:601 Model:1 without hydrogens
 45 48  0  0  0  0            999 V2000
   -9.6000  -27.4570   26.6300   O 0  0  0  0  0  0  0  0  0  0  0  0
  -10.6340  -27.9180   27.3200   C 0  0  0  0  0  0  0  0  0  0  0  0
  -11.8620  -27.2830   26.8230   O 0  0  0  0  0  0  0  0  0  0  0  0
  -10.7860  -29.3630   27.0770   C 0  0  0  0  0  0  0  0  0  0  0  0
  -12.2270  -29.5770   26.9220   C 0  0  0  0  0  0  0  0  0  0  0  0
  -12.4670  -30.6430   26.1230   O 0  0  0  0  0  0  0  0  0  0  0  0
  -12.7510  -28.2770   26.3700   C 0  0  0  0  0  0  0  0  0  0  0  0
  -13.0120  -28.1370   24.9160   N 0  0  0  0  0  0  0  0  0  0  0  0
  -12.3730  -28.5410   23.7730   C 0  0  0  0  0  0  0  0  0  0  0  0
  -13.0800  -28.0690   22.7070   N 0  0  0  0  0  0  0  0  0  0  0  0
  -14.1730  -27.3200   23.1990   C 0  0  0  0  0  0  0  0  0  0  0  0
  -14.1370  -27.3490   24.6100   C 0  0  0  0  0  0  0  0  0  0  0  0
  -15.1160  -26.6520   25.3340   N 0  0  0  0  0  0  0  0  0  0  0  0
  -16.0930  -25.9420   24.6780   C 0  0  0  0  0  0  0  0  0  0  0  0
  -16.1560  -25.9080   23.2990   N 0  0  0  0  0  0  0  0  0  0  0  0
  -15.2490  -26.5870   22.5350   C 0  0  0  0  0  0  0  0  0  0  0  0
  -15.2640  -26.5170   21.0740   N 0  0  0  0  0  0  0  0  0  0  0  0
   -2.7420  -24.0410   29.3610   C 0  0  0  0  0  0  0  0  0  0  0  0
   -4.1800  -23.7090   29.5780   C 0  0  0  0  0  0  0  0  0  0  0  0
   -4.5160  -23.1770   30.9370   C 0  0  0  0  0  0  0  0  0  0  0  0
   -4.9610  -23.1630   28.3320   C 0  0  0  0  0  0  0  0  0  0  0  0
   -4.9210  -21.7740   28.1640   O 0  0  0  0  0  0  0  0  0  0  0  0
   -6.4130  -23.6530   28.2000   C 0  0  0  0  0  0  0  0  0  0  0  0
   -7.1130  -22.9360   27.2600   O 0  0  0  0  0  0  0  0  0  0  0  0
   -6.5980  -25.1370   27.9550   C 0  0  0  0  0  0  0  0  0  0  0  0
   -5.7170  -25.9470   28.1600   O 0  0  0  0  0  0  0  0  0  0  0  0
   -7.8910  -25.6330   27.4770   N 0  0  0  0  0  0  0  0  0  0  0  0
   -8.1480  -27.2620   27.1990   P 0  0  0  0  0  0  0  0  0  0  0  0
   -7.9860  -27.9910   28.5820   O 0  0  0  0  0  0  0  0  0  0  0  0
   -7.0620  -27.7280   26.1690   O 0  0  0  0  0  0  0  0  0  0  0  0
  -16.6110  -26.3030   20.1330   P 0  0  0  0  0  0  0  0  0  0  0  0
  -17.6090  -27.4090   20.4590   O 0  0  0  0  0  0  0  0  0  0  0  0
  -17.2770  -24.9920   20.5250   O 0  0  0  0  0  0  0  0  0  0  0  0
  -16.1720  -26.3330   18.6030   O 0  0  0  0  0  0  0  0  0  0  0  0
  -15.8380  -27.5490   17.9770   C 0  0  0  0  0  0  0  0  0  0  0  0
  -14.3620  -27.8270   17.9250   C 0  0  0  0  0  0  0  0  0  0  0  0
  -13.8670  -28.2940   19.2240   O 0  0  0  0  0  0  0  0  0  0  0  0
  -14.0120  -28.8120   16.9000   C 0  0  0  0  0  0  0  0  0  0  0  0
  -12.6290  -29.1590   16.8530   O 0  0  0  0  0  0  0  0  0  0  0  0
  -14.6990  -28.8130   15.5460   C 0  0  0  0  0  0  0  0  0  0  0  0
  -15.0190  -30.1660   14.9950   C 0  0  0  0  0  0  0  0  0  0  0  0
  -14.5470  -30.4160   13.7160   O 0  0  0  0  0  0  0  0  0  0  0  0
  -15.9700  -28.0140   15.5290   O 0  0  0  0  0  0  0  0  0  0  0  0
  -16.6750  -27.7940   16.7260   C 0  0  0  0  0  0  0  0  0  0  0  0
  -17.7460  -26.9240   16.5230   O 0  0  0  0  0  0  0  0  0  0  0  0
 42 41  1  0  0  0  0
 41 40  1  0  0  0  0
 43 40  1  0  0  0  0
 43 44  1  0  0  0  0
 40 38  1  0  0  0  0
 45 44  1  0  0  0  0
 44 35  1  0  0  0  0
 39 38  1  0  0  0  0
 38 36  1  0  0  0  0
 36 35  1  0  0  0  0
 36 37  1  0  0  0  0
 35 34  1  0  0  0  0
 34 31  1  0  0  0  0
 31 32  2  0  0  0  0
 31 33  1  0  0  0  0
 31 17  1  0  0  0  0
 17 16  1  0  0  0  0
 16 11  2  0  0  0  0
 16 15  1  0  0  0  0
 10 11  1  0  0  0  0
 10  9  2  0  0  0  0
 11 12  1  0  0  0  0
 15 14  2  0  0  0  0
  9  8  1  0  0  0  0
 12  8  1  0  0  0  0
 12 13  2  0  0  0  0
 14 13  1  0  0  0  0
  8  7  1  0  0  0  0
  6  5  1  0  0  0  0
 30 28  2  0  0  0  0
  7  3  1  0  0  0  0
  7  5  1  0  0  0  0
  1 28  1  0  0  0  0
  1  2  1  0  0  0  0
  3  2  1  0  0  0  0
  5  4  1  0  0  0  0
  4  2  1  0  0  0  0
 28 27  1  0  0  0  0
 28 29  1  0  0  0  0
 24 23  1  0  0  0  0
 27 25  1  0  0  0  0
 25 26  2  0  0  0  0
 25 23  1  0  0  0  0
 22 21  1  0  0  0  0
 23 21  1  0  0  0  0
 21 19  1  0  0  0  0
 18 19  1  0  0  0  0
 19 20  1  0  0  0  0
M  END
>  <InstanceId>
4ZEC_C84_A_601

>  <ChemCompId>
C84

>  <PdbId>
4ZEC

>  <ChainId>
A

>  <ResidueNumber>
601

>  <InsertionCode>


>  <Model>
1

>  <AltIds>


>  <MissingHeavyAtoms>
0

>  <ObservedFormula>
C21 N6 O16 P2

>  <Name>
[(2S,3R,4S,5S,6R)-6-(hydroxymethyl)-2,4,5-tris(oxidanyl)oxan-3-yl]oxy-N-[9-[(2R,3S,5R)-5-[[[(2R,3S)-4-methyl-2,3-bis(oxidanyl)pentanoyl]amino]-oxidanyl-phosphoryl]oxy-3-oxidanyl-oxolan-2-yl]purin-6-yl]phosphonamidic acid

>  <SystematicName>
[(2S,3R,4S,5S,6R)-6-(hydroxymethyl)-2,4,5-tris(oxidanyl)oxan-3-yl]oxy-N-[9-[(2R,3S,5R)-5-[[[(2R,3S)-4-methyl-2,3-bis(oxidanyl)pentanoyl]amino]-oxidanyl-phosphoryl]oxy-3-oxidanyl-oxolan-2-yl]purin-6-yl]phosphonamidic acid

>  <Synonyms>
Agrocin 84

>  <Type>
NON-POLYMER

>  <Formula>
C21 H34 N6 O16 P2

>  <MolecularWeight>
688.473

>  <ModifiedDate>
2015-08-14

>  <Parent>


>  <OneLetterCode>


>  <SubcomponentList>


>  <AmbiguousFlag>
N

>  <InChI>
InChI=1S/C21H34N6O16P2/c1-7(2)12(30)15(33)19(34)26-45(38,39)42-10-3-8(29)20(41-10)27-6-24-11-17(22-5-23-18(11)27)25-44(36,37)43-16-14(32)13(31)9(4-28)40-21(16)35/h5-10,12-16,20-21,28-33,35H,3-4H2,1-2H3,(H2,26,34,38,39)(H2,22,23,25,36,37)/t8-,9+,10+,12-,13+,14-,15+,16+,20+,21-/m0/s1

>  <InChIKey>
KOMSNTWZRZGGEF-IPMHYPRDSA-N

>  <SMILES>
CC(C)[C@@H]([C@H](C(=O)NP(=O)(O)O[C@@H]1C[C@@H]([C@@H](O1)n2cnc3c2ncnc3NP(=O)(O)O[C@@H]4[C@H]([C@@H]([C@H](O[C@@H]4O)CO)O)O)O)O)O

$$$$
