1HVI_A77_A_800
  RCSB PDB08012015063D
Coordinates from PDB:1HVI:A:800 Model:1 without hydrogens
 58 61  0  0  0  0            999 V2000
    3.4840    3.3320   10.7440   C 0  0  0  0  0  0  0  0  0  0  0  0
    3.3360    4.0240   11.7300   O 0  0  0  0  0  0  0  0  0  0  0  0
    3.9860    3.8340    9.5980   N 0  0  0  0  0  0  0  0  0  0  0  0
    4.1860    3.0150    8.3970   C 0  0  0  0  0  0  0  0  0  0  0  0
    4.3660    5.2480    9.5330   C 0  0  0  0  0  0  0  0  0  0  0  0
    5.8600    5.4890    9.5740   C 0  0  0  0  0  0  0  0  0  0  0  0
    6.5950    5.5550    8.3900   C 0  0  0  0  0  0  0  0  0  0  0  0
    6.4040    5.6810   10.7780   N 0  0  0  0  0  0  0  0  0  0  0  0
    7.9510    5.8620    8.4900   C 0  0  0  0  0  0  0  0  0  0  0  0
    7.7020    5.9660   10.8620   C 0  0  0  0  0  0  0  0  0  0  0  0
    8.5250    6.0770    9.7510   C 0  0  0  0  0  0  0  0  0  0  0  0
    3.1650    2.0470   10.7480   N 0  0  0  0  0  0  0  0  0  0  0  0
    2.7860    1.2980   11.9600   C 0  0  0  0  0  0  0  0  0  0  0  0
    3.9320    0.3780   12.3800   C 0  0  0  0  0  0  0  0  0  0  0  0
    4.0280   -0.7680   11.9740   O 0  0  0  0  0  0  0  0  0  0  0  0
    1.4690    0.5260   11.7400   C 0  0  0  0  0  0  0  0  0  0  0  0
    1.0410   -0.2680   12.9880   C 0  0  0  0  0  0  0  0  0  0  0  0
    0.3340    1.4570   11.2930   C 0  0  0  0  0  0  0  0  0  0  0  0
    4.8470    0.9370   13.1830   N 0  0  0  0  0  0  0  0  0  0  0  0
    6.1390    0.2940   13.5540   C 0  0  0  0  0  0  0  0  0  0  0  0
    7.2770    1.2140   13.0810   C 0  0  0  0  0  0  0  0  0  0  0  0
    7.5800    1.1300   11.6220   C 0  0  0  0  0  0  0  0  0  0  0  0
    7.1840    2.1490   10.7610   C 0  0  0  0  0  0  0  0  0  0  0  0
    7.4540    2.0420    9.3930   C 0  0  0  0  0  0  0  0  0  0  0  0
    8.1290    0.9290    8.8970   C 0  0  0  0  0  0  0  0  0  0  0  0
    8.5340   -0.0800    9.7830   C 0  0  0  0  0  0  0  0  0  0  0  0
    8.2550    0.0170   11.1470   C 0  0  0  0  0  0  0  0  0  0  0  0
    6.2460    0.1640   15.0760   C 0  0  0  0  0  0  0  0  0  0  0  0
    7.4730   -0.4920   15.3580   O 0  0  0  0  0  0  0  0  0  0  0  0
    5.1290   -0.1720   17.2130   O 0  0  0  0  0  0  0  0  0  0  0  0
    5.0120   -0.4270   15.8130   C 0  0  0  0  0  0  0  0  0  0  0  0
    5.7540   -2.8020   16.2090   N 0  0  0  0  0  0  0  0  0  0  0  0
    4.7380   -1.9260   15.5940   C 0  0  0  0  0  0  0  0  0  0  0  0
    3.3490   -2.3270   16.1270   C 0  0  0  0  0  0  0  0  0  0  0  0
    3.0720   -3.8220   16.0900   C 0  0  0  0  0  0  0  0  0  0  0  0
    3.2530   -4.6130   17.2380   C 0  0  0  0  0  0  0  0  0  0  0  0
    3.0440   -6.0000   17.1780   C 0  0  0  0  0  0  0  0  0  0  0  0
    2.6440   -6.6190   15.9850   C 0  0  0  0  0  0  0  0  0  0  0  0
    2.4420   -5.8380   14.8450   C 0  0  0  0  0  0  0  0  0  0  0  0
    2.6580   -4.4490   14.8990   C 0  0  0  0  0  0  0  0  0  0  0  0
    6.9100   -5.9190   16.6840   N 0  0  0  0  0  0  0  0  0  0  0  0
    7.4180   -4.5880   16.4020   C 0  0  0  0  0  0  0  0  0  0  0  0
    6.4320   -3.7550   15.5590   C 0  0  0  0  0  0  0  0  0  0  0  0
    6.3130   -3.9440   14.3650   O 0  0  0  0  0  0  0  0  0  0  0  0
    8.8090   -4.6600   15.7320   C 0  0  0  0  0  0  0  0  0  0  0  0
    9.3660   -3.2530   15.4630   C 0  0  0  0  0  0  0  0  0  0  0  0
    9.8170   -5.4220   16.5890   C 0  0  0  0  0  0  0  0  0  0  0  0
    6.7680   -6.3930   17.9220   C 0  0  0  0  0  0  0  0  0  0  0  0
    7.1430   -5.7640   18.9010   O 0  0  0  0  0  0  0  0  0  0  0  0
    6.2260   -7.6350   18.0230   N 0  0  0  0  0  0  0  0  0  0  0  0
    5.7910   -8.3920   16.8390   C 0  0  0  0  0  0  0  0  0  0  0  0
    5.9940   -8.2530   19.3450   C 0  0  0  0  0  0  0  0  0  0  0  0
    4.6440   -7.8700   19.9060   C 0  0  0  0  0  0  0  0  0  0  0  0
    3.5550   -8.7340   19.7710   C 0  0  0  0  0  0  0  0  0  0  0  0
    4.5550   -6.6680   20.5110   N 0  0  0  0  0  0  0  0  0  0  0  0
    2.3170   -8.3440   20.2820   C 0  0  0  0  0  0  0  0  0  0  0  0
    3.3550   -6.2960   20.9830   C 0  0  0  0  0  0  0  0  0  0  0  0
    2.2110   -7.0980   20.9010   C 0  0  0  0  0  0  0  0  0  0  0  0
  1  2  2  0  0  0  0
  1  3  1  0  0  0  0
  1 12  1  0  0  0  0
  3  4  1  0  0  0  0
  3  5  1  0  0  0  0
  5  6  1  0  0  0  0
  6  7  1  0  0  0  0
  6  8  2  0  0  0  0
  7  9  2  0  0  0  0
  8 10  1  0  0  0  0
  9 11  1  0  0  0  0
 10 11  2  0  0  0  0
 12 13  1  0  0  0  0
 13 14  1  0  0  0  0
 13 16  1  0  0  0  0
 14 15  2  0  0  0  0
 14 19  1  0  0  0  0
 16 17  1  0  0  0  0
 16 18  1  0  0  0  0
 19 20  1  0  0  0  0
 20 21  1  0  0  0  0
 20 28  1  0  0  0  0
 21 22  1  0  0  0  0
 22 23  2  0  0  0  0
 22 27  1  0  0  0  0
 23 24  1  0  0  0  0
 24 25  2  0  0  0  0
 25 26  1  0  0  0  0
 26 27  2  0  0  0  0
 28 29  1  0  0  0  0
 28 31  1  0  0  0  0
 30 31  1  0  0  0  0
 31 33  1  0  0  0  0
 32 33  1  0  0  0  0
 32 43  1  0  0  0  0
 33 34  1  0  0  0  0
 34 35  1  0  0  0  0
 35 36  2  0  0  0  0
 35 40  1  0  0  0  0
 36 37  1  0  0  0  0
 37 38  2  0  0  0  0
 38 39  1  0  0  0  0
 39 40  2  0  0  0  0
 41 42  1  0  0  0  0
 41 48  1  0  0  0  0
 42 43  1  0  0  0  0
 42 45  1  0  0  0  0
 43 44  2  0  0  0  0
 45 46  1  0  0  0  0
 45 47  1  0  0  0  0
 48 49  2  0  0  0  0
 48 50  1  0  0  0  0
 50 51  1  0  0  0  0
 50 52  1  0  0  0  0
 52 53  1  0  0  0  0
 53 54  1  0  0  0  0
 53 55  2  0  0  0  0
 54 56  2  0  0  0  0
 55 57  1  0  0  0  0
 56 58  1  0  0  0  0
 57 58  2  0  0  0  0
M  END
>  <InstanceId>
1HVI_A77_A_800

>  <ChemCompId>
A77

>  <PdbId>
1HVI

>  <ChainId>
A

>  <ResidueNumber>
800

>  <InsertionCode>


>  <Model>
1

>  <AltIds>


>  <MissingHeavyAtoms>
0

>  <ObservedFormula>
C44 N8 O6

>  <Name>
N-{1-BENZYL-(2R,3S)-2,3-DIHYDROXY-4-[3-METHYL-2-(3-METHYL-3-PYRIDIN-2-YLMETHYL-UREIDO)-BUTYRYLAMINO]-5-PHENYL-PENTYL}-3-METHYL-2-(3-METHYL-3-PYRIDIN-2-YLMETHYL-UREIDO)-BUTYRAMIDE

>  <SystematicName>
(2S)-N-[(2S,3S,4R,5S)-3,4-dihydroxy-5-[[(2S)-3-methyl-2-[(methyl-(pyridin-2-ylmethyl)carbamoyl)amino]butanoyl]amino]-1,6-diphenyl-hexan-2-yl]-3-methyl-2-[(methyl-(pyridin-2-ylmethyl)carbamoyl)amino]butanamide

>  <Synonyms>


>  <Type>
NON-POLYMER

>  <Formula>
C44 H58 N8 O6

>  <MolecularWeight>
794.981

>  <ModifiedDate>
2011-06-04

>  <Parent>


>  <OneLetterCode>


>  <SubcomponentList>


>  <AmbiguousFlag>
N

>  <InChI>
InChI=1S/C44H58N8O6/c1-29(2)37(49-43(57)51(5)27-33-21-13-15-23-45-33)41(55)47-35(25-31-17-9-7-10-18-31)39(53)40(54)36(26-32-19-11-8-12-20-32)48-42(56)38(30(3)4)50-44(58)52(6)28-34-22-14-16-24-46-34/h7-24,29-30,35-40,53-54H,25-28H2,1-6H3,(H,47,55)(H,48,56)(H,49,57)(H,50,58)/t35-,36-,37-,38-,39-,40+/m0/s1

>  <InChIKey>
QPVWMQXBTCSLCB-BYAJYZPISA-N

>  <SMILES>
CC(C)[C@@H](C(=O)N[C@@H](Cc1ccccc1)[C@@H]([C@@H]([C@H](Cc2ccccc2)NC(=O)[C@H](C(C)C)NC(=O)N(C)Cc3ccccn3)O)O)NC(=O)N(C)Cc4ccccn4

$$$$
