1TQ4_GDP_A_500
  RCSB PDB08012016023D
Coordinates from PDB:1TQ4:A:500 Model:1 without hydrogens
 28 30  0  0  0  0            999 V2000
    9.6810   25.2450   36.8220   P 0  0  0  0  0  0  0  0  0  0  0  0
    8.9710   26.1030   37.7580   O 0  0  0  0  0  0  0  0  0  0  0  0
    8.9760   23.9910   36.4100   O 0  0  0  0  0  0  0  0  0  0  0  0
   10.0170   25.8680   35.4480   O 0  0  0  0  0  0  0  0  0  0  0  0
   11.0390   24.5870   37.5810   O 0  0  0  0  0  0  0  0  0  0  0  0
   12.2030   25.5230   38.2220   P 0  0  0  0  0  0  0  0  0  0  0  0
   13.2380   25.0210   37.2790   O 0  0  0  0  0  0  0  0  0  0  0  0
   12.0560   26.9930   38.1790   O 0  0  0  0  0  0  0  0  0  0  0  0
   12.4830   24.7830   39.5990   O 0  0  0  0  0  0  0  0  0  0  0  0
   11.7590   24.9460   40.8100   C 0  0  0  0  0  0  0  0  0  0  0  0
   12.7840   25.0580   41.9680   C 0  0  0  0  0  0  0  0  0  0  0  0
   13.5040   23.8180   42.3300   O 0  0  0  0  0  0  0  0  0  0  0  0
   13.9910   26.0460   41.7710   C 0  0  0  0  0  0  0  0  0  0  0  0
   14.1880   26.6390   43.0920   O 0  0  0  0  0  0  0  0  0  0  0  0
   15.1780   25.1680   41.3440   C 0  0  0  0  0  0  0  0  0  0  0  0
   16.4620   25.6890   41.6730   O 0  0  0  0  0  0  0  0  0  0  0  0
   14.8830   23.8490   42.0020   C 0  0  0  0  0  0  0  0  0  0  0  0
   15.1740   22.6370   41.1520   N 0  0  0  0  0  0  0  0  0  0  0  0
   14.8320   22.2810   39.8680   C 0  0  0  0  0  0  0  0  0  0  0  0
   15.2990   21.1180   39.5110   N 0  0  0  0  0  0  0  0  0  0  0  0
   15.9990   20.6520   40.6100   C 0  0  0  0  0  0  0  0  0  0  0  0
   16.7470   19.4300   40.8590   C 0  0  0  0  0  0  0  0  0  0  0  0
   16.9200   18.4840   40.0750   O 0  0  0  0  0  0  0  0  0  0  0  0
   17.3250   19.3710   42.1790   N 0  0  0  0  0  0  0  0  0  0  0  0
   17.2010   20.3690   43.1520   C 0  0  0  0  0  0  0  0  0  0  0  0
   17.8050   20.1400   44.3170   N 0  0  0  0  0  0  0  0  0  0  0  0
   16.4940   21.5320   42.9310   N 0  0  0  0  0  0  0  0  0  0  0  0
   15.9410   21.5840   41.6580   C 0  0  0  0  0  0  0  0  0  0  0  0
  1  2  2  0  0  0  0
  1  3  1  0  0  0  0
  1  4  1  0  0  0  0
  1  5  1  0  0  0  0
  5  6  1  0  0  0  0
  6  7  2  0  0  0  0
  6  8  1  0  0  0  0
  6  9  1  0  0  0  0
  9 10  1  0  0  0  0
 10 11  1  0  0  0  0
 11 12  1  0  0  0  0
 11 13  1  0  0  0  0
 12 17  1  0  0  0  0
 13 14  1  0  0  0  0
 13 15  1  0  0  0  0
 15 16  1  0  0  0  0
 15 17  1  0  0  0  0
 17 18  1  0  0  0  0
 18 19  1  0  0  0  0
 18 28  1  0  0  0  0
 19 20  2  0  0  0  0
 20 21  1  0  0  0  0
 21 22  1  0  0  0  0
 21 28  2  0  0  0  0
 22 23  2  0  0  0  0
 22 24  1  0  0  0  0
 24 25  1  0  0  0  0
 25 26  1  0  0  0  0
 25 27  2  0  0  0  0
 27 28  1  0  0  0  0
M  END
>  <InstanceId>
1TQ4_GDP_A_500

>  <ChemCompId>
GDP

>  <PdbId>
1TQ4

>  <ChainId>
A

>  <ResidueNumber>
500

>  <InsertionCode>


>  <Model>
1

>  <AltIds>


>  <MissingHeavyAtoms>
0

>  <ObservedFormula>
C10 N5 O11 P2

>  <Name>
GUANOSINE-5'-DIPHOSPHATE

>  <SystematicName>
[(2R,3S,4R,5R)-5-(2-azanyl-6-oxidanylidene-1H-purin-9-yl)-3,4-bis(oxidanyl)oxolan-2-yl]methyl phosphono hydrogen phosphate

>  <Synonyms>


>  <Type>
RNA LINKING

>  <Formula>
C10 H15 N5 O11 P2

>  <MolecularWeight>
443.201

>  <ModifiedDate>
2014-05-12

>  <Parent>
G

>  <OneLetterCode>
G

>  <SubcomponentList>


>  <AmbiguousFlag>
N

>  <InChI>
InChI=1S/C10H15N5O11P2/c11-10-13-7-4(8(18)14-10)12-2-15(7)9-6(17)5(16)3(25-9)1-24-28(22,23)26-27(19,20)21/h2-3,5-6,9,16-17H,1H2,(H,22,23)(H2,19,20,21)(H3,11,13,14,18)/t3-,5-,6-,9-/m1/s1

>  <InChIKey>
QGWNDRXFNXRZMB-UUOKFMHZSA-N

>  <SMILES>
c1nc2c(n1[C@H]3[C@@H]([C@@H]([C@H](O3)CO[P@](=O)(O)OP(=O)(O)O)O)O)N=C(NC2=O)N

$$$$
