5MOD_86L_A_404
  RCSB PDB08022002243D
Coordinates from PDB:5MOD:A:404 Model:1 without hydrogens
 13 13  0  0  0  0            999 V2000
    6.1710  142.8150  353.2660  Cl 0  0  0  0  0  0  0  0  0  0  0  0
    5.3190  141.3200  353.0650   C 0  0  0  0  0  0  0  0  0  0  0  0
    5.8850  140.1530  353.5300   C 0  0  0  0  0  0  0  0  0  0  0  0
    5.2160  138.9450  353.3960   C 0  0  0  0  0  0  0  0  0  0  0  0
    5.8400  137.6640  353.8700   C 0  0  0  0  0  0  0  0  0  0  0  0
    5.0050  137.0630  354.9050   N 0  0  0  0  0  0  0  0  0  0  0  0
    3.9660  138.9460  352.7960   C 0  0  0  0  0  0  0  0  0  0  0  0
    3.3940  140.1170  352.3250   C 0  0  0  0  0  0  0  0  0  0  0  0
    4.0750  141.3160  352.4480   C 0  0  0  0  0  0  0  0  0  0  0  0
    3.6460  142.5240  351.9590   O 0  0  0  0  0  0  0  0  0  0  0  0
    3.1380  143.5350  352.8690   C 0  0  0  0  0  0  0  0  0  0  0  0
    3.5260  144.8840  352.3410   C 0  0  0  0  0  0  0  0  0  0  0  0
    1.6580  143.3460  352.9490   C 0  0  0  0  0  0  0  0  0  0  0  0
 10  9  1  0  0  0  0
 10 11  1  0  0  0  0
  8  9  2  0  0  0  0
  8  7  1  0  0  0  0
 12 11  1  0  0  0  0
  9  2  1  0  0  0  0
  7  4  2  0  0  0  0
 11 13  1  0  0  0  0
  2  1  1  0  0  0  0
  2  3  2  0  0  0  0
  4  3  1  0  0  0  0
  4  5  1  0  0  0  0
  5  6  1  0  0  0  0
M  END
>  <InstanceId>
5MOD_86L_A_404

>  <ChemCompId>
86L

>  <PdbId>
5MOD

>  <ChainId>
A

>  <ResidueNumber>
404

>  <InsertionCode>


>  <Model>
1

>  <AltIds>


>  <MissingHeavyAtoms>
0

>  <ObservedFormula>
C10 N O Cl

>  <Name>
(3-chloranyl-4-propan-2-yloxy-phenyl)methanamine

>  <SystematicName>
(3-chloranyl-4-propan-2-yloxy-phenyl)methanamine

>  <Synonyms>


>  <Type>
NON-POLYMER

>  <Formula>
C10 H14 Cl N O

>  <MolecularWeight>
199.677

>  <ModifiedDate>
2017-05-19

>  <Parent>


>  <OneLetterCode>


>  <SubcomponentList>


>  <AmbiguousFlag>
N

>  <InChI>
InChI=1S/C10H14ClNO/c1-7(2)13-10-4-3-8(6-12)5-9(10)11/h3-5,7H,6,12H2,1-2H3

>  <InChIKey>
IMVIKRQERQOQKJ-UHFFFAOYSA-N

>  <SMILES>
CC(C)Oc1ccc(cc1Cl)CN

$$$$
