3N2V_JT5_A_0
  RCSB PDB08012019513D
Coordinates from PDB:3N2V:A:0 Model:1 without hydrogens
 24 25  0  0  0  0            999 V2000
    1.7480   -1.9720    4.1270   C 0  0  0  0  0  0  0  0  0  0  0  0
    0.5840   -2.6100    3.3570   C 0  0  0  0  0  0  0  0  0  0  0  0
    2.0910   -4.2340    2.2050   C 0  0  0  0  0  0  0  0  0  0  0  0
    1.3560   -1.3850    5.2190   N 0  0  0  0  0  0  0  0  0  0  0  0
    2.3080   -0.8300    5.9880   O 0  0  0  0  0  0  0  0  0  0  0  0
    2.9480   -1.9900    3.8440   O 0  0  0  0  0  0  0  0  0  0  0  0
    1.0200   -3.9710    3.2200   N 0  0  0  0  0  0  0  0  0  0  0  0
    0.7400   -5.1240    4.2050   S 0  0  0  0  0  0  0  0  0  0  0  0
    1.6090   -4.3010    0.7770   C 0  0  0  0  0  0  0  0  0  0  0  0
    0.8810   -3.1050    0.4510   O 0  0  0  0  0  0  0  0  0  0  0  0
    0.5690   -6.3930    3.4610   O 0  0  0  0  0  0  0  0  0  0  0  0
    2.0000   -5.3150    5.2240   C 0  0  0  0  0  0  0  0  0  0  0  0
   -0.4210   -4.9260    5.0770   O 0  0  0  0  0  0  0  0  0  0  0  0
    3.1090   -6.0710    4.8390   C 0  0  0  0  0  0  0  0  0  0  0  0
    4.1950   -6.3050    5.6550   C 0  0  0  0  0  0  0  0  0  0  0  0
    4.1370   -5.7880    6.9720   C 0  0  0  0  0  0  0  0  0  0  0  0
    3.0540   -4.9820    7.3670   C 0  0  0  0  0  0  0  0  0  0  0  0
    1.9840   -4.7290    6.5030   C 0  0  0  0  0  0  0  0  0  0  0  0
    5.2690   -6.0910    7.8960   C 0  0  0  0  0  0  0  0  0  0  0  0
    4.9760   -6.4030    9.2640   C 0  0  0  0  0  0  0  0  0  0  0  0
    6.0220   -6.6960   10.1740   C 0  0  0  0  0  0  0  0  0  0  0  0
    7.3620   -6.7730    9.7210   C 0  0  0  0  0  0  0  0  0  0  0  0
    7.6260   -6.5490    8.3480   C 0  0  0  0  0  0  0  0  0  0  0  0
    6.5860   -6.2270    7.4530   C 0  0  0  0  0  0  0  0  0  0  0  0
 22 21  2  0  0  0  0
 22 23  1  0  0  0  0
 21 20  1  0  0  0  0
 23 24  2  0  0  0  0
 20 19  2  0  0  0  0
 24 19  1  0  0  0  0
 19 16  1  0  0  0  0
 16 17  2  0  0  0  0
 16 15  1  0  0  0  0
 17 18  1  0  0  0  0
 15 14  2  0  0  0  0
 18 12  2  0  0  0  0
 14 12  1  0  0  0  0
  5  4  1  0  0  0  0
  6  1  2  0  0  0  0
 12  8  1  0  0  0  0
  4  1  1  0  0  0  0
  1  2  1  0  0  0  0
  2  7  1  0  0  0  0
  8 13  2  0  0  0  0
  8  7  1  0  0  0  0
  8 11  2  0  0  0  0
  7  3  1  0  0  0  0
  9  3  1  0  0  0  0
  9 10  1  0  0  0  0
M  END
>  <InstanceId>
3N2V_JT5_A_0

>  <ChemCompId>
JT5

>  <PdbId>
3N2V

>  <ChainId>
A

>  <ResidueNumber>
0

>  <InsertionCode>


>  <Model>
1

>  <AltIds>


>  <MissingHeavyAtoms>
0

>  <ObservedFormula>
C16 N2 O5 S

>  <Name>
N~2~-(biphenyl-4-ylsulfonyl)-N-hydroxy-N~2~-(2-hydroxyethyl)glycinamide

>  <SystematicName>
N-hydroxy-2-[2-hydroxyethyl-(4-phenylphenyl)sulfonyl-amino]ethanamide

>  <Synonyms>


>  <Type>
NON-POLYMER

>  <Formula>
C16 H18 N2 O5 S

>  <MolecularWeight>
350.39

>  <ModifiedDate>
2011-06-04

>  <Parent>


>  <OneLetterCode>


>  <SubcomponentList>


>  <AmbiguousFlag>


>  <InChI>
InChI=1S/C16H18N2O5S/c19-11-10-18(12-16(20)17-21)24(22,23)15-8-6-14(7-9-15)13-4-2-1-3-5-13/h1-9,19,21H,10-12H2,(H,17,20)

>  <InChIKey>
QQDWEVONJRXVDB-UHFFFAOYSA-N

>  <SMILES>
c1ccc(cc1)c2ccc(cc2)S(=O)(=O)N(CCO)CC(=O)NO

$$$$
