5VCY_DB8_A_401
  RCSB PDB08022003203D
Coordinates from PDB:5VCY:A:401 Model:1 without hydrogens
 36 39  0  0  0  0            999 V2000
  -14.9280   -5.9220   -1.6360   C 0  0  0  0  0  0  0  0  0  0  0  0
  -20.8190    0.2520   -5.2570   O 0  0  0  0  0  0  0  0  0  0  0  0
   -9.3770   -4.3760   -1.9880   C 0  0  0  0  0  0  0  0  0  0  0  0
  -19.5620    1.3350   -1.6620   N 0  0  0  0  0  0  0  0  0  0  0  0
  -23.3790   -0.1620   -3.8950  Cl 0  0  0  0  0  0  0  0  0  0  0  0
  -20.5270   -2.9280   -0.2990  Cl 0  0  0  0  0  0  0  0  0  0  0  0
  -18.6230    0.8760   -1.6400   C 0  0  0  0  0  0  0  0  0  0  0  0
  -16.1230    0.9670   -1.6240   C 0  0  0  0  0  0  0  0  0  0  0  0
  -21.8020   -1.5220   -2.2100   C 0  0  0  0  0  0  0  0  0  0  0  0
  -19.4820   -1.0340   -3.6340   C 0  0  0  0  0  0  0  0  0  0  0  0
  -13.2720   -1.3320   -1.5970   C 0  0  0  0  0  0  0  0  0  0  0  0
  -15.4090   -3.1890   -1.8140   C 0  0  0  0  0  0  0  0  0  0  0  0
   -9.4800   -3.2990   -0.9060   C 0  0  0  0  0  0  0  0  0  0  0  0
  -10.6940   -2.4070   -1.1750   C 0  0  0  0  0  0  0  0  0  0  0  0
   -5.0650   -8.0180   -1.5870   C 0  0  0  0  0  0  0  0  0  0  0  0
   -8.1280   -6.2400   -2.7810   C 0  0  0  0  0  0  0  0  0  0  0  0
   -7.5830   -5.3480   -0.6410   C 0  0  0  0  0  0  0  0  0  0  0  0
   -6.8290   -7.0170   -2.8330   C 0  0  0  0  0  0  0  0  0  0  0  0
   -6.2810   -6.1130   -0.7600   C 0  0  0  0  0  0  0  0  0  0  0  0
  -14.8380    0.4790   -1.6120   N 0  0  0  0  0  0  0  0  0  0  0  0
  -18.1700   -2.2410   -1.9090   N 0  0  0  0  0  0  0  0  0  0  0  0
  -13.8850   -5.0330   -1.7850   O 0  0  0  0  0  0  0  0  0  0  0  0
  -11.7030   -3.2480   -1.5870   O 0  0  0  0  0  0  0  0  0  0  0  0
  -20.7450   -0.4980   -4.1140   C 0  0  0  0  0  0  0  0  0  0  0  0
  -21.8730   -0.7690   -3.3780   C 0  0  0  0  0  0  0  0  0  0  0  0
  -20.5920   -2.0290   -1.7480   C 0  0  0  0  0  0  0  0  0  0  0  0
  -17.2530    0.1610   -1.6940   C 0  0  0  0  0  0  0  0  0  0  0  0
  -19.4050   -1.7810   -2.4840   C 0  0  0  0  0  0  0  0  0  0  0  0
  -14.1070   -3.6440   -1.7600   C 0  0  0  0  0  0  0  0  0  0  0  0
  -13.0500   -2.7160   -1.6550   C 0  0  0  0  0  0  0  0  0  0  0  0
  -17.0590   -1.2460   -1.7690   C 0  0  0  0  0  0  0  0  0  0  0  0
  -14.6300   -0.8770   -1.6600   C 0  0  0  0  0  0  0  0  0  0  0  0
  -15.7060   -1.7730   -1.7630   C 0  0  0  0  0  0  0  0  0  0  0  0
   -8.0650   -5.0370   -1.9500   N 0  0  0  0  0  0  0  0  0  0  0  0
   -6.3560   -7.3270   -1.5140   N 0  0  0  0  0  0  0  0  0  0  0  0
  -19.6340    0.6170   -5.9980   C 0  0  0  0  0  0  0  0  0  0  0  0
  1 22  1  0  0  0  0
 24  2  1  0  0  0  0
 36  2  1  0  0  0  0
 34  3  1  0  0  0  0
 13  3  1  0  0  0  0
  7  4  3  0  0  0  0
  5 25  1  0  0  0  0
  6 26  1  0  0  0  0
 27  7  1  0  0  0  0
 27  8  2  0  0  0  0
 20  8  1  0  0  0  0
  9 26  2  0  0  0  0
  9 25  1  0  0  0  0
 28 10  2  0  0  0  0
 24 10  1  0  0  0  0
 30 11  2  0  0  0  0
 11 32  1  0  0  0  0
 29 12  2  0  0  0  0
 12 33  1  0  0  0  0
 13 14  1  0  0  0  0
 23 14  1  0  0  0  0
 15 35  1  0  0  0  0
 34 16  1  0  0  0  0
 18 16  1  0  0  0  0
 19 17  1  0  0  0  0
 17 34  1  0  0  0  0
 35 18  1  0  0  0  0
 19 35  1  0  0  0  0
 32 20  2  0  0  0  0
 28 21  1  0  0  0  0
 21 31  1  0  0  0  0
 22 29  1  0  0  0  0
 23 30  1  0  0  0  0
 25 24  2  0  0  0  0
 26 28  1  0  0  0  0
 31 27  1  0  0  0  0
 29 30  1  0  0  0  0
 33 31  2  0  0  0  0
 33 32  1  0  0  0  0
M  END
>  <InstanceId>
5VCY_DB8_A_401

>  <ChemCompId>
DB8

>  <PdbId>
5VCY

>  <ChainId>
A

>  <ResidueNumber>
401

>  <InsertionCode>


>  <Model>
1

>  <AltIds>


>  <MissingHeavyAtoms>
0

>  <ObservedFormula>
C26 N5 O3 Cl2

>  <Name>
4-[(2,4-dichloro-5-methoxyphenyl)amino]-6-methoxy-7-[3-(4-methylpiperazin-1-yl)propoxy]quinoline-3-carbonitrile

>  <SystematicName>
4-[[2,4-bis(chloranyl)-5-methoxy-phenyl]amino]-6-methoxy-7-[3-(4-methylpiperazin-1-yl)propoxy]quinoline-3-carbonitrile

>  <Synonyms>
Bosutinib

>  <Type>
NON-POLYMER

>  <Formula>
C26 H29 Cl2 N5 O3

>  <MolecularWeight>
530.446

>  <ModifiedDate>
2020-06-17

>  <Parent>


>  <OneLetterCode>


>  <SubcomponentList>


>  <AmbiguousFlag>
N

>  <InChI>
InChI=1S/C26H29Cl2N5O3/c1-32-6-8-33(9-7-32)5-4-10-36-25-13-21-18(11-24(25)35-3)26(17(15-29)16-30-21)31-22-14-23(34-2)20(28)12-19(22)27/h11-14,16H,4-10H2,1-3H3,(H,30,31)

>  <InChIKey>
UBPYILGKFZZVDX-UHFFFAOYSA-N

>  <SMILES>
CN1CCN(CC1)CCCOc2cc3c(cc2OC)c(c(cn3)C#N)Nc4cc(c(cc4Cl)Cl)OC

$$$$
