5OM7_DM2_A_501
  RCSB PDB08022002423D
Coordinates from PDB:5OM7:A:501 Model:1 without hydrogens
 39 43  0  0  0  0            999 V2000
  -23.0100    6.0270    2.0460   C 0  0  0  0  0  0  0  0  0  0  0  0
  -23.3420    7.2830    2.5210   C 0  0  0  0  0  0  0  0  0  0  0  0
  -22.3470    8.1920    2.8210   C 0  0  0  0  0  0  0  0  0  0  0  0
  -21.0010    7.8280    2.6520   C 0  0  0  0  0  0  0  0  0  0  0  0
  -19.9820    8.6880    2.9480   O 0  0  0  0  0  0  0  0  0  0  0  0
  -20.6520    6.5610    2.2070   C 0  0  0  0  0  0  0  0  0  0  0  0
  -19.2420    6.1520    1.9920   C 0  0  0  0  0  0  0  0  0  0  0  0
  -18.2930    6.8830    2.2400   O 0  0  0  0  0  0  0  0  0  0  0  0
  -18.9980    4.7980    1.4520   C 0  0  0  0  0  0  0  0  0  0  0  0
  -17.6710    4.3700    1.2300   C 0  0  0  0  0  0  0  0  0  0  0  0
  -16.6530    5.2290    1.5280   O 0  0  0  0  0  0  0  0  0  0  0  0
  -17.3880    3.0870    0.7310   C 0  0  0  0  0  0  0  0  0  0  0  0
  -15.9330    2.6830    0.4750   C 0  0  0  0  0  0  0  0  0  0  0  0
  -15.1260    2.6260    1.6560   O 0  0  0  0  0  0  0  0  0  0  0  0
  -15.8500    1.3830   -0.4300   C 0  0  0  0  0  0  0  0  0  0  0  0
  -16.8570    0.3320    0.0860   C 0  0  0  0  0  0  0  0  0  0  0  0
  -16.5830    0.0860    1.4530   O 0  0  0  0  0  0  0  0  0  0  0  0
  -16.7270   -0.9940   -0.6510   C 0  0  0  0  0  0  0  0  0  0  0  0
  -16.6340   -1.0680   -1.8510   O 0  0  0  0  0  0  0  0  0  0  0  0
  -16.7540   -2.2230    0.2220   C 0  0  0  0  0  0  0  0  0  0  0  0
  -17.0400   -3.2780   -0.6510   O 0  0  0  0  0  0  0  0  0  0  0  0
  -18.2750    0.8670   -0.1370   C 0  0  0  0  0  0  0  0  0  0  0  0
  -18.4470    2.2290    0.4090   C 0  0  0  0  0  0  0  0  0  0  0  0
  -19.7730    2.6580    0.6260   C 0  0  0  0  0  0  0  0  0  0  0  0
  -20.7890    1.7500    0.3020   O 0  0  0  0  0  0  0  0  0  0  0  0
  -20.0470    3.9370    1.1400   C 0  0  0  0  0  0  0  0  0  0  0  0
  -21.4330    4.3740    1.3340   C 0  0  0  0  0  0  0  0  0  0  0  0
  -22.3530    3.6240    1.0610   O 0  0  0  0  0  0  0  0  0  0  0  0
  -21.6980    5.6940    1.8610   C 0  0  0  0  0  0  0  0  0  0  0  0
  -20.4350   10.0470    3.0820   C 0  0  0  0  0  0  0  0  0  0  0  0
  -13.9090    3.3430    1.5490   C 0  0  0  0  0  0  0  0  0  0  0  0
  -13.3180    3.5210    2.9670   C 0  0  0  0  0  0  0  0  0  0  0  0
  -12.8200    2.1780    3.4970   C 0  0  0  0  0  0  0  0  0  0  0  0
  -12.1250    2.3870    4.7590   N 0  0  0  0  0  0  0  0  0  0  0  0
  -11.8440    1.5380    2.4550   C 0  0  0  0  0  0  0  0  0  0  0  0
  -10.8100    2.4710    2.1920   O 0  0  0  0  0  0  0  0  0  0  0  0
  -12.6750    1.3190    1.2100   C 0  0  0  0  0  0  0  0  0  0  0  0
  -13.0290    2.6020    0.6980   O 0  0  0  0  0  0  0  0  0  0  0  0
  -11.9540    0.5450    0.1300   C 0  0  0  0  0  0  0  0  0  0  0  0
  1  2  2  0  0  0  0
  1 29  1  0  0  0  0
  2  3  1  0  0  0  0
  3  4  2  0  0  0  0
  4  5  1  0  0  0  0
  4  6  1  0  0  0  0
  5 30  1  0  0  0  0
  6  7  1  0  0  0  0
  6 29  2  0  0  0  0
  7  8  2  0  0  0  0
  7  9  1  0  0  0  0
  9 10  2  0  0  0  0
  9 26  1  0  0  0  0
 10 11  1  0  0  0  0
 10 12  1  0  0  0  0
 12 13  1  0  0  0  0
 12 23  2  0  0  0  0
 13 14  1  0  0  0  0
 13 15  1  0  0  0  0
 14 31  1  0  0  0  0
 15 16  1  0  0  0  0
 16 17  1  0  0  0  0
 16 18  1  0  0  0  0
 16 22  1  0  0  0  0
 18 19  2  0  0  0  0
 18 20  1  0  0  0  0
 20 21  1  0  0  0  0
 22 23  1  0  0  0  0
 23 24  1  0  0  0  0
 24 25  1  0  0  0  0
 24 26  2  0  0  0  0
 26 27  1  0  0  0  0
 27 28  2  0  0  0  0
 27 29  1  0  0  0  0
 31 32  1  0  0  0  0
 31 38  1  0  0  0  0
 32 33  1  0  0  0  0
 33 34  1  0  0  0  0
 33 35  1  0  0  0  0
 35 36  1  0  0  0  0
 35 37  1  0  0  0  0
 37 38  1  0  0  0  0
 37 39  1  0  0  0  0
M  END
>  <InstanceId>
5OM7_DM2_A_501

>  <ChemCompId>
DM2

>  <PdbId>
5OM7

>  <ChainId>
A

>  <ResidueNumber>
501

>  <InsertionCode>


>  <Model>
1

>  <AltIds>


>  <MissingHeavyAtoms>
0

>  <ObservedFormula>
C27 N O11

>  <Name>
DOXORUBICIN

>  <SystematicName>
(7S,9S)-7-[(2R,4S,5S,6S)-4-amino-5-hydroxy-6-methyl-oxan-2-yl]oxy-6,9,11-trihydroxy-9-(2-hydroxyethanoyl)-4-methoxy-8,10-dihydro-7H-tetracene-5,12-dione

>  <Synonyms>
ADRIAMYCIN

>  <Type>
NON-POLYMER

>  <Formula>
C27 H29 N O11

>  <MolecularWeight>
543.519

>  <ModifiedDate>
2011-06-04

>  <Parent>


>  <OneLetterCode>


>  <SubcomponentList>


>  <AmbiguousFlag>
N

>  <InChI>
InChI=1S/C27H29NO11/c1-10-22(31)13(28)6-17(38-10)39-15-8-27(36,16(30)9-29)7-12-19(15)26(35)21-20(24(12)33)23(32)11-4-3-5-14(37-2)18(11)25(21)34/h3-5,10,13,15,17,22,29,31,33,35-36H,6-9,28H2,1-2H3/t10-,13-,15-,17-,22+,27-/m0/s1

>  <InChIKey>
AOJJSUZBOXZQNB-TZSSRYMLSA-N

>  <SMILES>
C[C@H]1[C@H]([C@H](C[C@@H](O1)O[C@H]2C[C@@](Cc3c2c(c4c(c3O)C(=O)c5cccc(c5C4=O)OC)O)(C(=O)CO)O)N)O

$$$$
