3HWW_AKG_A_557
  RCSB PDB08012019153D
Coordinates from PDB:3HWW:A:557 Model:1 without hydrogens
 10  9  0  0  0  0            999 V2000
  -42.7770    3.0060   10.4000   C 0  0  0  0  0  0  0  0  0  0  0  0
  -42.3110    1.9630    9.9750   O 0  0  0  0  0  0  0  0  0  0  0  0
  -43.2280    3.9740    9.6790   O 0  0  0  0  0  0  0  0  0  0  0  0
  -42.9000    3.3130   11.7530   C 0  0  0  0  0  0  0  0  0  0  0  0
  -42.9340    4.4170   12.4520   O 0  0  0  0  0  0  0  0  0  0  0  0
  -42.7950    2.6900   12.9590   C 0  0  0  0  0  0  0  0  0  0  0  0
  -44.1440    2.3660   13.5110   C 0  0  0  0  0  0  0  0  0  0  0  0
  -43.8340    1.5140   14.7050   C 0  0  0  0  0  0  0  0  0  0  0  0
  -43.9490    2.0130   15.8380   O 0  0  0  0  0  0  0  0  0  0  0  0
  -43.4570    0.3410   14.5400   O 0  0  0  0  0  0  0  0  0  0  0  0
  1  2  2  0  0  0  0
  1  3  1  0  0  0  0
  1  4  1  0  0  0  0
  4  5  2  0  0  0  0
  4  6  1  0  0  0  0
  6  7  1  0  0  0  0
  7  8  1  0  0  0  0
  8  9  2  0  0  0  0
  8 10  1  0  0  0  0
M  END
>  <InstanceId>
3HWW_AKG_A_557

>  <ChemCompId>
AKG

>  <PdbId>
3HWW

>  <ChainId>
A

>  <ResidueNumber>
557

>  <InsertionCode>


>  <Model>
1

>  <AltIds>


>  <MissingHeavyAtoms>
0

>  <ObservedFormula>
C5 O5

>  <Name>
2-OXOGLUTARIC ACID

>  <SystematicName>
2-oxidanylidenepentanedioic acid

>  <Synonyms>


>  <Type>
NON-POLYMER

>  <Formula>
C5 H6 O5

>  <MolecularWeight>
146.098

>  <ModifiedDate>
2017-01-17

>  <Parent>


>  <OneLetterCode>


>  <SubcomponentList>


>  <AmbiguousFlag>
N

>  <InChI>
InChI=1S/C5H6O5/c6-3(5(9)10)1-2-4(7)8/h1-2H2,(H,7,8)(H,9,10)

>  <InChIKey>
KPGXRSRHYNQIFN-UHFFFAOYSA-N

>  <SMILES>
C(CC(=O)O)C(=O)C(=O)O

$$$$
