4B7R_G39_A_801
  RCSB PDB08012021123D
Coordinates from PDB:4B7R:A:801 Model:1 without hydrogens
 20 20  0  0  0  0            999 V2000
   27.0270   20.3980  -40.1150   C 0  0  0  0  0  0  0  0  0  0  0  0
   27.5070   19.3260  -39.6700   O 0  0  0  0  0  0  0  0  0  0  0  0
   27.7320   21.4370  -40.1840   O 0  0  0  0  0  0  0  0  0  0  0  0
   25.5640   20.5020  -40.5190   C 0  0  0  0  0  0  0  0  0  0  0  0
   24.8320   19.1930  -40.7580   C 0  0  0  0  0  0  0  0  0  0  0  0
   23.3380   19.5090  -40.7110   C 0  0  0  0  0  0  0  0  0  0  0  0
   22.9970   20.5060  -41.8100   C 0  0  0  0  0  0  0  0  0  0  0  0
   21.5730   20.8630  -41.7760   N 0  0  0  0  0  0  0  0  0  0  0  0
   20.6540   20.4060  -42.7900   C 0  0  0  0  0  0  0  0  0  0  0  0
   21.0420   19.7080  -43.7070   O 0  0  0  0  0  0  0  0  0  0  0  0
   19.1970   20.8140  -42.6960   C 0  0  0  0  0  0  0  0  0  0  0  0
   23.8240   21.7860  -41.7060   C 0  0  0  0  0  0  0  0  0  0  0  0
   25.3280   21.5740  -41.5380   C 0  0  0  0  0  0  0  0  0  0  0  0
   23.6060   22.6250  -42.7950   O 0  0  0  0  0  0  0  0  0  0  0  0
   22.8620   23.8000  -42.5890   C 0  0  0  0  0  0  0  0  0  0  0  0
   22.4630   24.4490  -43.9160   C 0  0  0  0  0  0  0  0  0  0  0  0
   23.4020   24.7720  -41.5140   C 0  0  0  0  0  0  0  0  0  0  0  0
   24.7280   25.4780  -41.8200   C 0  0  0  0  0  0  0  0  0  0  0  0
   21.8290   23.5090  -44.9240   C 0  0  0  0  0  0  0  0  0  0  0  0
   22.5170   18.3160  -40.7060   N 0  0  0  0  0  0  0  0  0  0  0  0
  1  2  2  0  0  0  0
  1  3  1  0  0  0  0
  1  4  1  0  0  0  0
  4  5  1  0  0  0  0
  4 13  2  0  0  0  0
  5  6  1  0  0  0  0
  6  7  1  0  0  0  0
  6 20  1  0  0  0  0
  7  8  1  0  0  0  0
  7 12  1  0  0  0  0
  8  9  1  0  0  0  0
  9 10  2  0  0  0  0
  9 11  1  0  0  0  0
 12 13  1  0  0  0  0
 12 14  1  0  0  0  0
 14 15  1  0  0  0  0
 15 16  1  0  0  0  0
 15 17  1  0  0  0  0
 16 19  1  0  0  0  0
 17 18  1  0  0  0  0
M  END
>  <InstanceId>
4B7R_G39_A_801

>  <ChemCompId>
G39

>  <PdbId>
4B7R

>  <ChainId>
A

>  <ResidueNumber>
801

>  <InsertionCode>


>  <Model>
1

>  <AltIds>


>  <MissingHeavyAtoms>
0

>  <ObservedFormula>
C14 N2 O4

>  <Name>
(3R,4R,5S)-4-(acetylamino)-5-amino-3-(pentan-3-yloxy)cyclohex-1-ene-1-carboxylic acid

>  <SystematicName>
(3R,4R,5S)-4-acetamido-5-azanyl-3-pentan-3-yloxy-cyclohexene-1-carboxylic acid

>  <Synonyms>
Oseltamivir carboxylate

>  <Type>
NON-POLYMER

>  <Formula>
C14 H24 N2 O4

>  <MolecularWeight>
284.351

>  <ModifiedDate>
2020-06-17

>  <Parent>


>  <OneLetterCode>


>  <SubcomponentList>


>  <AmbiguousFlag>
N

>  <InChI>
InChI=1S/C14H24N2O4/c1-4-10(5-2)20-12-7-9(14(18)19)6-11(15)13(12)16-8(3)17/h7,10-13H,4-6,15H2,1-3H3,(H,16,17)(H,18,19)/t11-,12+,13+/m0/s1

>  <InChIKey>
NENPYTRHICXVCS-YNEHKIRRSA-N

>  <SMILES>
CCC(CC)O[C@@H]1C=C(C[C@@H]([C@H]1NC(=O)C)N)C(=O)O

$$$$
