6HLX_G9Z_A_604
  RCSB PDB08022005003D
Coordinates from PDB:6HLX:A:604 Model:1 without hydrogens
 20 20  0  0  0  0            999 V2000
   86.8440  -32.2430   -1.5960   O 0  0  0  0  0  0  0  0  0  0  0  0
   87.2120  -31.0980   -1.8940   C 0  0  0  0  0  0  0  0  0  0  0  0
   88.3620  -30.8440   -2.6690   C 0  0  0  0  0  0  0  0  0  0  0  0
   88.4450  -29.2940   -2.8220   C 0  0  0  0  0  0  0  0  0  0  0  0
   87.3560  -28.7480   -1.9140   C 0  0  0  0  0  0  0  0  0  0  0  0
   86.5170  -27.8230   -2.6130   C 0  0  0  0  0  0  0  0  0  0  0  0
   85.5540  -28.2710   -3.2940   O 0  0  0  0  0  0  0  0  0  0  0  0
   86.6470  -29.9730   -1.4180   N 0  0  0  0  0  0  0  0  0  0  0  0
   85.3850  -29.9440   -0.5830   C 0  0  0  0  0  0  0  0  0  0  0  0
   85.7240  -29.6750    0.8840   C 0  0  0  0  0  0  0  0  0  0  0  0
   86.2970  -28.3690    0.9420   O 0  0  0  0  0  0  0  0  0  0  0  0
   84.4960  -29.7430    1.7970   C 0  0  0  0  0  0  0  0  0  0  0  0
   83.6900  -30.8880    1.4190   O 0  0  0  0  0  0  0  0  0  0  0  0
   84.9010  -29.9380    3.2970   C 0  0  0  0  0  0  0  0  0  0  0  0
   83.7150  -30.0020    4.1100   O 0  0  0  0  0  0  0  0  0  0  0  0
   85.8980  -28.9080    3.8810   C 0  0  0  0  0  0  0  0  0  0  0  0
   86.3850  -29.3790    5.1530   O 0  0  0  0  0  0  0  0  0  0  0  0
   85.3000  -27.4970    3.9880   C 0  0  0  0  0  0  0  0  0  0  0  0
   86.3170  -26.5620    4.4100   O 0  0  0  0  0  0  0  0  0  0  0  0
   86.8040  -26.5970   -2.5420   O 0  0  0  0  0  0  0  0  0  0  0  0
  7  6  2  0  0  0  0
  4  3  2  0  0  0  0
  4  5  1  0  0  0  0
  3  2  1  0  0  0  0
  6 20  1  0  0  0  0
  6  5  1  0  0  0  0
  5  8  1  0  0  0  0
  2  1  2  0  0  0  0
  2  8  1  0  0  0  0
  8  9  1  0  0  0  0
  9 10  1  0  0  0  0
 10 11  1  0  0  0  0
 10 12  1  0  0  0  0
 13 12  1  0  0  0  0
 12 14  1  0  0  0  0
 14 16  1  0  0  0  0
 14 15  1  0  0  0  0
 16 18  1  0  0  0  0
 16 17  1  0  0  0  0
 18 19  1  0  0  0  0
M  END
>  <InstanceId>
6HLX_G9Z_A_604

>  <ChemCompId>
G9Z

>  <PdbId>
6HLX

>  <ChainId>
A

>  <ResidueNumber>
604

>  <InsertionCode>


>  <Model>
1

>  <AltIds>


>  <MissingHeavyAtoms>
0

>  <ObservedFormula>
C11 N O8

>  <Name>
agropinic acid

>  <SystematicName>
(2~{S})-5-oxidanylidene-1-[(2~{R},3~{R},4~{R},5~{R})-2,3,4,5,6-pentakis(oxidanyl)hexyl]-2~{H}-pyrrole-2-carboxylic acid

>  <Synonyms>


>  <Type>
NON-POLYMER

>  <Formula>
C11 H17 N O8

>  <MolecularWeight>
291.255

>  <ModifiedDate>
2018-12-21

>  <Parent>


>  <OneLetterCode>


>  <SubcomponentList>


>  <AmbiguousFlag>
N

>  <InChI>
InChI=1S/C11H17NO8/c13-4-7(15)10(18)9(17)6(14)3-12-5(11(19)20)1-2-8(12)16/h1-2,5-7,9-10,13-15,17-18H,3-4H2,(H,19,20)/t5-,6+,7+,9+,10+/m0/s1

>  <InChIKey>
WYIHPABVKQQJFB-SZWOQXJISA-N

>  <SMILES>
C1=CC(=O)N([C@@H]1C(=O)O)C[C@H]([C@H]([C@@H]([C@@H](CO)O)O)O)O

$$$$
