6G38_TBN_A_800
  RCSB PDB08022004453D
Coordinates from PDB:6G38:A:800 Model:1 without hydrogens
 19 21  0  0  0  0            999 V2000
   51.1170   45.7800   10.0260   O 0  0  0  0  0  0  0  0  0  0  0  0
   51.5340   44.5610    9.4270   C 0  0  0  0  0  0  0  0  0  0  0  0
   51.0780   44.3970    8.0020   C 0  0  0  0  0  0  0  0  0  0  0  0
   49.6410   44.2200    7.9560   O 0  0  0  0  0  0  0  0  0  0  0  0
   49.1110   44.8580    6.8050   C 0  0  0  0  0  0  0  0  0  0  0  0
   48.1980   45.9200    7.2290   N 0  0  0  0  0  0  0  0  0  0  0  0
   48.2180   46.5700    8.4560   C 0  0  0  0  0  0  0  0  0  0  0  0
   47.2530   47.5190    8.4970   C 0  0  0  0  0  0  0  0  0  0  0  0
   46.5860   47.4860    7.2270   C 0  0  0  0  0  0  0  0  0  0  0  0
   45.5140   48.1740    6.5800   C 0  0  0  0  0  0  0  0  0  0  0  0
   45.1500   47.8180    5.3330   N 0  0  0  0  0  0  0  0  0  0  0  0
   45.8210   46.8210    4.7420   C 0  0  0  0  0  0  0  0  0  0  0  0
   46.8510   46.1040    5.2230   N 0  0  0  0  0  0  0  0  0  0  0  0
   47.1960   46.4730    6.4690   C 0  0  0  0  0  0  0  0  0  0  0  0
   44.8720   49.1930    7.1630   N 0  0  0  0  0  0  0  0  0  0  0  0
   50.3100   45.3630    5.9940   C 0  0  0  0  0  0  0  0  0  0  0  0
   50.6650   44.3360    5.0660   O 0  0  0  0  0  0  0  0  0  0  0  0
   51.3450   45.5800    7.0890   C 0  0  0  0  0  0  0  0  0  0  0  0
   52.7170   45.5840    6.6510   O 0  0  0  0  0  0  0  0  0  0  0  0
  1  2  1  0  0  0  0
  2  3  1  0  0  0  0
  3  4  1  0  0  0  0
  3 18  1  0  0  0  0
  4  5  1  0  0  0  0
  5  6  1  0  0  0  0
  5 16  1  0  0  0  0
  6  7  1  0  0  0  0
  6 14  1  0  0  0  0
  7  8  2  0  0  0  0
  8  9  1  0  0  0  0
  9 10  2  0  0  0  0
  9 14  1  0  0  0  0
 10 11  1  0  0  0  0
 10 15  1  0  0  0  0
 11 12  2  0  0  0  0
 12 13  1  0  0  0  0
 13 14  2  0  0  0  0
 16 17  1  0  0  0  0
 16 18  1  0  0  0  0
 18 19  1  0  0  0  0
M  END
>  <InstanceId>
6G38_TBN_A_800

>  <ChemCompId>
TBN

>  <PdbId>
6G38

>  <ChainId>
A

>  <ResidueNumber>
800

>  <InsertionCode>


>  <Model>
1

>  <AltIds>


>  <MissingHeavyAtoms>
0

>  <ObservedFormula>
C11 N4 O4

>  <Name>
'2-(4-AMINO-PYRROLO[2,3-D]PYRIMIDIN-7-YL)-5-HYDROXYMETHYL-TETRAHYDRO-FURAN-3,4-DIOL

>  <SystematicName>
(2R,3R,4S,5R)-2-(4-aminopyrrolo[2,3-d]pyrimidin-7-yl)-5-(hydroxymethyl)oxolane-3,4-diol

>  <Synonyms>
7-DEAZAADENOSINE

>  <Type>
NON-POLYMER

>  <Formula>
C11 H14 N4 O4

>  <MolecularWeight>
266.253

>  <ModifiedDate>
2020-06-17

>  <Parent>
A

>  <OneLetterCode>


>  <SubcomponentList>


>  <AmbiguousFlag>
N

>  <InChI>
InChI=1S/C11H14N4O4/c12-9-5-1-2-15(10(5)14-4-13-9)11-8(18)7(17)6(3-16)19-11/h1-2,4,6-8,11,16-18H,3H2,(H2,12,13,14)/t6-,7-,8-,11-/m1/s1

>  <InChIKey>
HDZZVAMISRMYHH-KCGFPETGSA-N

>  <SMILES>
c1cn(c2c1c(ncn2)N)[C@H]3[C@@H]([C@@H]([C@H](O3)CO)O)O

$$$$
