3X00_ZOF_A_201
  RCSB PDB08012020573D
Coordinates from PDB:3X00:A:201 Model:1 without hydrogens
 23 24  0  0  0  0            999 V2000
   24.4080  -67.8760    6.8310   C 0  0  0  0  0  0  0  0  0  0  0  0
   23.3380  -68.2730    6.3330   O 0  0  0  0  0  0  0  0  0  0  0  0
   25.7420  -68.5240    6.6600   C 0  0  0  0  0  0  0  0  0  0  0  0
   25.6780  -69.8230    7.3980   C 0  0  0  0  0  0  0  0  0  0  0  0
   26.8840  -70.5910    7.0210   C 0  0  0  0  0  0  0  0  0  0  0  0
   26.9920  -71.7670    7.9090   C 0  0  0  0  0  0  0  0  0  0  0  0
   28.1510  -72.6200    7.3570   C 0  0  0  0  0  0  0  0  0  0  0  0
   28.2910  -73.8220    8.1080   N 0  0  0  0  0  0  0  0  0  0  0  0
   27.5310  -74.8930    8.0700   C 0  0  0  0  0  0  0  0  0  0  0  0
   26.5160  -74.9820    7.3420   O 0  0  0  0  0  0  0  0  0  0  0  0
   27.9110  -76.1240    8.9110   C 0  0  0  0  0  0  0  0  0  0  0  0
   26.7910  -76.6320    9.8020   C 0  0  0  0  0  0  0  0  0  0  0  0
   26.4060  -75.7500   10.9450   C 0  0  0  0  0  0  0  0  0  0  0  0
   25.2300  -76.3650   11.6790   C 0  0  0  0  0  0  0  0  0  0  0  0
   24.8150  -75.5170   12.9040   C 0  0  0  0  0  0  0  0  0  0  0  0
   26.0280  -75.6230   14.2710   S 0  0  0  0  0  0  0  0  0  0  0  0
   24.8060  -74.8890   15.3020   C 0  0  0  0  0  0  0  0  0  0  0  0
   23.4200  -75.3770   15.0060   C 0  0  0  0  0  0  0  0  0  0  0  0
   23.4340  -75.8830   13.5340   C 0  0  0  0  0  0  0  0  0  0  0  0
   23.2950  -77.2810   13.5890   N 0  0  0  0  0  0  0  0  0  0  0  0
   22.9360  -77.6690   14.8850   C 0  0  0  0  0  0  0  0  0  0  0  0
   22.9680  -78.9900   15.2220   N 0  0  0  0  0  0  0  0  0  0  0  0
   23.2900  -76.6480   15.7010   N 0  0  0  0  0  0  0  0  0  0  0  0
 23 21  1  0  0  0  0
 23 18  1  0  0  0  0
 22 21  2  0  0  0  0
 17 18  1  0  0  0  0
 17 16  1  0  0  0  0
 21 20  1  0  0  0  0
 18 19  1  0  0  0  0
 16 15  1  0  0  0  0
 20 19  1  0  0  0  0
 19 15  1  0  0  0  0
 15 14  1  0  0  0  0
 14 13  1  0  0  0  0
 13 12  1  0  0  0  0
 12 11  1  0  0  0  0
 11  9  1  0  0  0  0
  2  1  2  0  0  0  0
  8  9  1  0  0  0  0
  8  7  1  0  0  0  0
  6  7  1  0  0  0  0
  6  5  1  0  0  0  0
  9 10  2  0  0  0  0
  4  5  1  0  0  0  0
  4  3  1  0  0  0  0
  1  3  1  0  0  0  0
M  END
>  <InstanceId>
3X00_ZOF_A_201

>  <ChemCompId>
ZOF

>  <PdbId>
3X00

>  <ChainId>
A

>  <ResidueNumber>
201

>  <InsertionCode>


>  <Model>
1

>  <AltIds>


>  <MissingHeavyAtoms>
1

>  <ObservedFormula>
C16 N4 O2 S

>  <Name>
6-({5-[(2E,3aS,4S,6aR)-2-iminohexahydro-1H-thieno[3,4-d]imidazol-4-yl]pentanoyl}amino)hexanoic acid

>  <SystematicName>
6-[5-[(3aS,4S,6aR)-2-azanylidene-1,3,3a,4,6,6a-hexahydrothieno[3,4-d]imidazol-4-yl]pentanoylamino]hexanoic acid

>  <Synonyms>


>  <Type>
NON-POLYMER

>  <Formula>
C16 H28 N4 O3 S

>  <MolecularWeight>
356.484

>  <ModifiedDate>
2015-01-16

>  <Parent>


>  <OneLetterCode>


>  <SubcomponentList>


>  <AmbiguousFlag>
N

>  <InChI>
InChI=1S/C16H28N4O3S/c17-16-19-11-10-24-12(15(11)20-16)6-3-4-7-13(21)18-9-5-1-2-8-14(22)23/h11-12,15H,1-10H2,(H,18,21)(H,22,23)(H3,17,19,20)/t11-,12-,15-/m0/s1

>  <InChIKey>
IAJKFHSLWUNBII-HUBLWGQQSA-N

>  <SMILES>
[H]/N=C/1\N[C@H]2CS[C@H]([C@H]2N1)CCCCC(=O)NCCCCCC(=O)O

$$$$
