3SI4_B04_H_1
  RCSB PDB08012020283D
Coordinates from PDB:3SI4:H:1 Model:1 without hydrogens
 27 29  0  0  0  0            999 V2000
   16.6960  -15.5690   23.2920   N 0  0  0  0  0  0  0  0  0  0  0  0
   17.9550  -14.8470   23.2990   C 0  0  0  0  0  0  0  0  0  0  0  0
   17.7070  -13.4920   22.6930   C 0  0  0  0  0  0  0  0  0  0  0  0
   16.7810  -12.7970   23.0920   O 0  0  0  0  0  0  0  0  0  0  0  0
   18.4400  -14.7650   24.7430   C 0  0  0  0  0  0  0  0  0  0  0  0
   19.8390  -14.2060   24.8030   C 0  0  0  0  0  0  0  0  0  0  0  0
   20.9130  -14.8860   24.2310   C 0  0  0  0  0  0  0  0  0  0  0  0
   20.0440  -13.0020   25.4600   C 0  0  0  0  0  0  0  0  0  0  0  0
   22.1940  -14.3480   24.3120   C 0  0  0  0  0  0  0  0  0  0  0  0
   21.3220  -12.4660   25.5340   C 0  0  0  0  0  0  0  0  0  0  0  0
   22.3970  -13.1350   24.9610   C 0  0  0  0  0  0  0  0  0  0  0  0
   18.5140  -13.0720   21.7160   N 0  0  0  0  0  0  0  0  0  0  0  0
   18.2630  -11.7660   21.1060   C 0  0  0  0  0  0  0  0  0  0  0  0
   16.8660  -11.7520   20.5410   C 0  0  0  0  0  0  0  0  0  0  0  0
   16.4590  -12.7100   19.8990   O 0  0  0  0  0  0  0  0  0  0  0  0
   19.2930  -11.6620   19.9880   C 0  0  0  0  0  0  0  0  0  0  0  0
   20.3510  -12.6940   20.3150   C 0  0  0  0  0  0  0  0  0  0  0  0
   19.6530  -13.7790   21.1240   C 0  0  0  0  0  0  0  0  0  0  0  0
   16.0900  -10.6930   20.7800   N 0  0  0  0  0  0  0  0  0  0  0  0
   14.7210  -10.5330   20.2950   C 0  0  0  0  0  0  0  0  0  0  0  0
   13.7290  -10.4070   21.4310   C 0  0  0  0  0  0  0  0  0  0  0  0
   13.5170   -9.1730   22.0410   C 0  0  0  0  0  0  0  0  0  0  0  0
   12.6090   -9.0770   23.0860   C 0  0  0  0  0  0  0  0  0  0  0  0
   11.9200  -10.2160   23.4870   C 0  0  0  0  0  0  0  0  0  0  0  0
   12.1690  -11.4190   22.8380   C 0  0  0  0  0  0  0  0  0  0  0  0
   13.0570  -11.4940   21.8380   N 0  3  0  0  0  0  0  0  0  0  0  0
   13.2920  -12.7830   21.1790   C 0  0  0  0  0  0  0  0  0  0  0  0
  6  5  1  0  0  0  0
  6  7  2  0  0  0  0
  6  8  1  0  0  0  0
  5  2  1  0  0  0  0
  2  1  1  0  0  0  0
  2  3  1  0  0  0  0
  3 12  1  0  0  0  0
  3  4  2  0  0  0  0
 12 13  1  0  0  0  0
 12 18  1  0  0  0  0
  7  9  1  0  0  0  0
  9 11  2  0  0  0  0
 11 10  1  0  0  0  0
 10  8  2  0  0  0  0
 13 14  1  0  0  0  0
 13 16  1  0  0  0  0
 14 15  2  0  0  0  0
 14 19  1  0  0  0  0
 19 20  1  0  0  0  0
 20 21  1  0  0  0  0
 21 22  2  0  0  0  0
 21 26  1  0  0  0  0
 16 17  1  0  0  0  0
 17 18  1  0  0  0  0
 22 23  1  0  0  0  0
 23 24  2  0  0  0  0
 24 25  1  0  0  0  0
 25 26  2  0  0  0  0
 26 27  1  0  0  0  0
M  CHG  1  26   1
M  END
>  <InstanceId>
3SI4_B04_H_1

>  <ChemCompId>
B04

>  <PdbId>
3SI4

>  <ChainId>
H

>  <ResidueNumber>
1

>  <InsertionCode>


>  <Model>
1

>  <AltIds>


>  <MissingHeavyAtoms>
0

>  <ObservedFormula>
C21 N4 O2

>  <Name>
D-phenylalanyl-N-[(1-methylpyridinium-2-yl)methyl]-L-prolinamide

>  <SystematicName>
(2S)-1-[(2R)-2-azanyl-3-phenyl-propanoyl]-N-[(1-methylpyridin-1-ium-2-yl)methyl]pyrrolidine-2-carboxamide

>  <Synonyms>


>  <Type>
peptide-like

>  <Formula>
C21 H27 N4 O2

>  <MolecularWeight>
367.465

>  <ModifiedDate>
2012-06-15

>  <Parent>


>  <OneLetterCode>


>  <SubcomponentList>
DPN PRO NNZ

>  <AmbiguousFlag>
N

>  <InChI>
InChI=1S/C21H26N4O2/c1-24-12-6-5-10-17(24)15-23-20(26)19-11-7-13-25(19)21(27)18(22)14-16-8-3-2-4-9-16/h2-6,8-10,12,18-19H,7,11,13-15,22H2,1H3/p+1/t18-,19+/m1/s1

>  <InChIKey>
GWFYERFSYVJQNW-MOPGFXCFSA-O

>  <SMILES>
C[n+]1ccccc1CNC(=O)[C@@H]2CCCN2C(=O)[C@@H](Cc3ccccc3)N

$$$$
