5D1R_56S_A_305
  RCSB PDB08022001023D
Coordinates from PDB:5D1R:A:305 Model:1 without hydrogens
 17 16  0  0  0  0            999 V2000
  -17.2650   -6.5170  160.5190   C 0  0  0  0  0  0  0  0  0  0  0  0
  -15.8020   -4.0550  164.3030   C 0  0  0  0  0  0  0  0  0  0  0  0
  -16.7730   -3.0880  164.9120   C 0  0  0  0  0  0  0  0  0  0  0  0
  -19.1310  -13.3800  153.0960   C 0  0  0  0  0  0  0  0  0  0  0  0
  -18.3820  -12.7630  154.2080   C 0  0  0  0  0  0  0  0  0  0  0  0
  -17.2420  -11.8630  153.8750   C 0  0  0  0  0  0  0  0  0  0  0  0
  -16.4970  -11.3760  155.0640   C 0  0  0  0  0  0  0  0  0  0  0  0
  -15.8560  -10.0190  154.9900   C 0  0  0  0  0  0  0  0  0  0  0  0
  -16.4550   -8.9620  155.9160   C 0  0  0  0  0  0  0  0  0  0  0  0
  -16.3770   -9.0290  157.4410   C 0  0  0  0  0  0  0  0  0  0  0  0
  -16.9110   -7.8010  158.2080   C 0  0  0  0  0  0  0  0  0  0  0  0
  -17.0670   -7.8330  159.7390   C 0  0  0  0  0  0  0  0  0  0  0  0
  -17.3770   -6.5200  162.0380   C 0  0  0  0  0  0  0  0  0  0  0  0
  -17.2240   -5.2560  162.8590   C 0  0  0  0  0  0  0  0  0  0  0  0
  -18.0500   -4.3550  162.8100   O 0  0  0  0  0  0  0  0  0  0  0  0
  -16.3860   -5.2590  163.9430   O 0  0  0  0  0  0  0  0  0  0  0  0
  -14.5680   -4.2480  165.1300   C 0  0  0  0  0  0  0  0  0  0  0  0
  4  5  1  0  0  0  0
  6  5  1  0  0  0  0
  6  7  1  0  0  0  0
  8  7  1  0  0  0  0
  8  9  1  0  0  0  0
  9 10  1  0  0  0  0
 10 11  1  0  0  0  0
 11 12  1  0  0  0  0
 12  1  1  0  0  0  0
  1 13  1  0  0  0  0
 13 14  1  0  0  0  0
 15 14  2  0  0  0  0
 14 16  1  0  0  0  0
 16  2  1  0  0  0  0
  2  3  1  0  0  0  0
  2 17  1  0  0  0  0
M  END
>  <InstanceId>
5D1R_56S_A_305

>  <ChemCompId>
56S

>  <PdbId>
5D1R

>  <ChainId>
A

>  <ResidueNumber>
305

>  <InsertionCode>


>  <Model>
1

>  <AltIds>


>  <MissingHeavyAtoms>
0

>  <ObservedFormula>
C15 O2

>  <Name>
propan-2-yl dodecanoate

>  <SystematicName>
propan-2-yl dodecanoate

>  <Synonyms>
Isopropyl laurate

>  <Type>
NON-POLYMER

>  <Formula>
C15 H30 O2

>  <MolecularWeight>
242.397

>  <ModifiedDate>
2020-06-17

>  <Parent>


>  <OneLetterCode>


>  <SubcomponentList>


>  <AmbiguousFlag>
N

>  <InChI>
InChI=1S/C15H30O2/c1-4-5-6-7-8-9-10-11-12-13-15(16)17-14(2)3/h14H,4-13H2,1-3H3

>  <InChIKey>
UJPPXNXOEVDSRW-UHFFFAOYSA-N

>  <SMILES>
CCCCCCCCCCCC(=O)OC(C)C

$$$$
