5WL0_21G_A_801
  RCSB PDB08022003313D
Coordinates from PDB:5WL0:A:801 Model:1 without hydrogens
 29 33  0  0  0  0            999 V2000
  -24.6360    4.8550    8.7940   C 0  0  0  0  0  0  0  0  0  0  0  0
  -24.5810    4.7800    7.4320   C 0  0  0  0  0  0  0  0  0  0  0  0
  -25.2130    3.7380    6.6940   C 0  0  0  0  0  0  0  0  0  0  0  0
  -25.9450    2.8370    8.6210   C 0  0  0  0  0  0  0  0  0  0  0  0
  -25.3390    3.8600    9.4250   C 0  0  0  0  0  0  0  0  0  0  0  0
  -25.6500    3.5560   10.7780   C 0  0  0  0  0  0  0  0  0  0  0  0
  -25.9090    2.7510    7.2570   N 0  0  0  0  0  0  0  0  0  0  0  0
  -26.4040    2.3780   10.7840   C 0  0  0  0  0  0  0  0  0  0  0  0
  -26.5900    1.9260    9.4860   N 0  0  0  0  0  0  0  0  0  0  0  0
  -25.2730    4.3200   11.9460   C 0  0  0  0  0  0  0  0  0  0  0  0
  -25.6740    3.8800   13.1730   N 0  0  0  0  0  0  0  0  0  0  0  0
  -25.3930    4.6910   14.2280   C 0  0  0  0  0  0  0  0  0  0  0  0
  -24.7400    5.9200   14.0670   C 0  0  0  0  0  0  0  0  0  0  0  0
  -24.3460    6.2670   12.7790   C 0  0  0  0  0  0  0  0  0  0  0  0
  -24.6000    5.4610   11.7020   N 0  0  0  0  0  0  0  0  0  0  0  0
  -23.7520    7.4480   12.5630   N 0  0  0  0  0  0  0  0  0  0  0  0
  -23.3000    7.8460   11.2620   C 0  0  0  0  0  0  0  0  0  0  0  0
  -22.0490    8.7150   11.5410   C 0  0  0  0  0  0  0  0  0  0  0  0
  -21.9810    9.8200   10.4690   C 0  0  0  0  0  0  0  0  0  0  0  0
  -22.4000    9.2420    9.1150   C 0  0  0  0  0  0  0  0  0  0  0  0
  -23.8900    8.8430    9.1170   C 0  0  0  0  0  0  0  0  0  0  0  0
  -24.3730    8.6960   10.5610   C 0  0  0  0  0  0  0  0  0  0  0  0
  -24.4320   10.1240   11.1740   C 0  0  0  0  0  0  0  0  0  0  0  0
  -23.0550   10.8380   10.9660   C 0  0  0  0  0  0  0  0  0  0  0  0
  -20.8160    7.8390   11.6630   C 0  0  0  0  0  0  0  0  0  0  0  0
  -20.5160    7.1140   12.6110   O 0  0  0  0  0  0  0  0  0  0  0  0
  -19.9650    7.8860   10.6200   O 0  0  0  0  0  0  0  0  0  0  0  0
  -24.5260    6.7760   15.0820   F 0  0  0  0  0  0  0  0  0  0  0  0
  -23.9160    5.7220    6.7610   F 0  0  0  0  0  0  0  0  0  0  0  0
  9  4  1  0  0  0  0
  9  8  1  0  0  0  0
  7  4  1  0  0  0  0
  7  3  2  0  0  0  0
  4  5  2  0  0  0  0
  8  6  2  0  0  0  0
  3  2  1  0  0  0  0
  5  6  1  0  0  0  0
  5  1  1  0  0  0  0
  6 10  1  0  0  0  0
  2  1  2  0  0  0  0
  2 29  1  0  0  0  0
 11 10  2  0  0  0  0
 11 12  1  0  0  0  0
 10 15  1  0  0  0  0
 12 13  2  0  0  0  0
 15 14  2  0  0  0  0
 14 13  1  0  0  0  0
 14 16  1  0  0  0  0
 13 28  1  0  0  0  0
 27 25  2  0  0  0  0
 16 17  1  0  0  0  0
 17 22  1  0  0  0  0
 17 18  1  0  0  0  0
 25 26  1  0  0  0  0
 25 18  1  0  0  0  0
 21 22  1  0  0  0  0
 21 20  1  0  0  0  0
 22 23  1  0  0  0  0
 18 19  1  0  0  0  0
 20 19  1  0  0  0  0
 23 24  1  0  0  0  0
 19 24  1  0  0  0  0
M  END
>  <InstanceId>
5WL0_21G_A_801

>  <ChemCompId>
21G

>  <PdbId>
5WL0

>  <ChainId>
A

>  <ResidueNumber>
801

>  <InsertionCode>


>  <Model>
1

>  <AltIds>


>  <MissingHeavyAtoms>
0

>  <ObservedFormula>
C20 N5 O2 F2

>  <Name>
(2S,3S)-3-[[5-fluoranyl-2-(5-fluoranyl-1H-pyrrolo[2,3-b]pyridin-3-yl)pyrimidin-4-yl]amino]bicyclo[2.2.2]octane-2-carboxylic acid

>  <SystematicName>
(2S,3S)-3-[[5-fluoranyl-2-(5-fluoranyl-1H-pyrrolo[2,3-b]pyridin-3-yl)pyrimidin-4-yl]amino]bicyclo[2.2.2]octane-2-carboxylic acid

>  <Synonyms>


>  <Type>
NON-POLYMER

>  <Formula>
C20 H19 F2 N5 O2

>  <MolecularWeight>
399.394

>  <ModifiedDate>
2014-09-05

>  <Parent>


>  <OneLetterCode>


>  <SubcomponentList>


>  <AmbiguousFlag>
N

>  <InChI>
InChI=1S/C20H19F2N5O2/c21-11-5-12-13(7-24-17(12)23-6-11)18-25-8-14(22)19(27-18)26-16-10-3-1-9(2-4-10)15(16)20(28)29/h5-10,15-16H,1-4H2,(H,23,24)(H,28,29)(H,25,26,27)/t9-,10+,15-,16-/m0/s1

>  <InChIKey>
JGPXDNKSIXAZEQ-UIHHKEIPSA-N

>  <SMILES>
c1c(cnc2c1c(c[nH]2)c3ncc(c(n3)N[C@@H]4[C@H](C5CCC4CC5)C(=O)O)F)F

$$$$
