4MHZ_PBD_A_401
  RCSB PDB08012022313D
Coordinates from PDB:4MHZ:A:401 Model:1 without hydrogens
 22 23  0  0  0  0            999 V2000
  -22.7200   17.9470   -0.2080   C 0  0  0  0  0  0  0  0  0  0  0  0
  -25.5050   17.8640   -4.9830   C 0  0  0  0  0  0  0  0  0  0  0  0
  -21.9850   23.4840   -7.0300   S 0  0  0  0  0  0  0  0  0  0  0  0
  -15.5870   17.8920   -6.7720   C 0  0  0  0  0  0  0  0  0  0  0  0
  -22.4730   21.2600   -2.8490   C 0  0  0  0  0  0  0  0  0  0  0  0
  -22.6080   20.2190   -1.9140   C 0  0  0  0  0  0  0  0  0  0  0  0
  -16.0970   18.9100   -7.4620   C 0  0  0  0  0  0  0  0  0  0  0  0
  -16.9400   18.9680   -5.5010   C 0  0  0  0  0  0  0  0  0  0  0  0
  -23.9220   20.0300   -4.3820   C 0  0  0  0  0  0  0  0  0  0  0  0
  -19.1160   20.7070   -6.5780   C 0  0  0  0  0  0  0  0  0  0  0  0
  -19.4570   21.9690   -5.8180   C 0  0  0  0  0  0  0  0  0  0  0  0
  -17.6860   20.7750   -7.0430   C 0  0  0  0  0  0  0  0  0  0  0  0
  -16.1140   17.9490   -5.5580   N 0  0  0  0  0  0  0  0  0  0  0  0
  -20.7910   21.7660   -5.2420   N 0  0  0  0  0  0  0  0  0  0  0  0
  -23.0870   22.0780   -5.0540   N 0  0  0  0  0  0  0  0  0  0  0  0
  -23.5820   18.0190   -1.3580   O 0  0  0  0  0  0  0  0  0  0  0  0
  -24.8140   17.8860   -3.7130   O 0  0  0  0  0  0  0  0  0  0  0  0
  -21.9350   22.3360   -5.7060   C 0  0  0  0  0  0  0  0  0  0  0  0
  -23.1410   21.1560   -4.0820   C 0  0  0  0  0  0  0  0  0  0  0  0
  -23.3990   19.0870   -2.2160   C 0  0  0  0  0  0  0  0  0  0  0  0
  -24.0570   19.0000   -3.4580   C 0  0  0  0  0  0  0  0  0  0  0  0
  -16.9340   19.5760   -6.6790   N 0  0  0  0  0  0  0  0  0  0  0  0
  1 16  1  0  0  0  0
  2 17  1  0  0  0  0
  3 18  2  0  0  0  0
  4  7  2  0  0  0  0
  4 13  1  0  0  0  0
  5  6  2  0  0  0  0
  5 19  1  0  0  0  0
  6 20  1  0  0  0  0
  7 22  1  0  0  0  0
  8 13  2  0  0  0  0
  8 22  1  0  0  0  0
  9 19  2  0  0  0  0
  9 21  1  0  0  0  0
 10 11  1  0  0  0  0
 10 12  1  0  0  0  0
 11 14  1  0  0  0  0
 12 22  1  0  0  0  0
 14 18  1  0  0  0  0
 15 18  1  0  0  0  0
 15 19  1  0  0  0  0
 16 20  1  0  0  0  0
 17 21  1  0  0  0  0
 20 21  2  0  0  0  0
M  END
>  <InstanceId>
4MHZ_PBD_A_401

>  <ChemCompId>
PBD

>  <PdbId>
4MHZ

>  <ChainId>
A

>  <ResidueNumber>
401

>  <InsertionCode>


>  <Model>
1

>  <AltIds>


>  <MissingHeavyAtoms>
0

>  <ObservedFormula>
C15 N4 O2 S

>  <Name>
1-(3,4-dimethoxyphenyl)-3-[3-(1H-imidazol-1-yl)propyl]thiourea

>  <SystematicName>
1-(3,4-dimethoxyphenyl)-3-(3-imidazol-1-ylpropyl)thiourea

>  <Synonyms>


>  <Type>
NON-POLYMER

>  <Formula>
C15 H20 N4 O2 S

>  <MolecularWeight>
320.41

>  <ModifiedDate>
2011-06-04

>  <Parent>


>  <OneLetterCode>


>  <SubcomponentList>


>  <AmbiguousFlag>
N

>  <InChI>
InChI=1S/C15H20N4O2S/c1-20-13-5-4-12(10-14(13)21-2)18-15(22)17-6-3-8-19-9-7-16-11-19/h4-5,7,9-11H,3,6,8H2,1-2H3,(H2,17,18,22)

>  <InChIKey>
FZQXMGLQANXZRP-UHFFFAOYSA-N

>  <SMILES>
COc1ccc(cc1OC)NC(=S)NCCCn2ccnc2

$$$$
