3PB8_AHN_X_390
  RCSB PDB08012020073D
Coordinates from PDB:3PB8:X:390 Model:1 without hydrogens
 11 11  0  0  0  0            999 V2000
  -18.3450  -14.9810   18.6880   C 0  0  0  0  0  0  0  0  0  0  0  0
  -18.8750  -15.7380   17.8180   O 0  0  0  0  0  0  0  0  0  0  0  0
  -18.3810  -15.2390   20.2340   C 0  0  0  0  0  0  0  0  0  0  0  0
  -17.7070  -13.8830   18.3250   N 0  0  0  0  0  0  0  0  0  0  0  0
  -17.5180  -13.6490   16.9360   C 0  0  0  0  0  0  0  0  0  0  0  0
  -18.5570  -12.6130   16.3630   C 0  0  0  0  0  0  0  0  0  0  0  0
  -18.4420  -12.6120   14.8300   C 0  0  0  0  0  0  0  0  0  0  0  0
  -18.6660  -13.6240   13.9610   C 0  0  0  0  0  0  0  0  0  0  0  0
  -18.0020  -11.5980   14.0870   N 0  0  0  0  0  0  0  0  0  0  0  0
  -18.0250  -11.9410   12.8340   C 0  0  0  0  0  0  0  0  0  0  0  0
  -18.4060  -13.2110   12.7010   N 0  0  0  0  0  0  0  0  0  0  0  0
  1  2  2  0  0  0  0
  1  3  1  0  0  0  0
  1  4  1  0  0  0  0
  4  5  1  0  0  0  0
  5  6  1  0  0  0  0
  6  7  1  0  0  0  0
  7  8  2  0  0  0  0
  7  9  1  0  0  0  0
  8 11  1  0  0  0  0
  9 10  2  0  0  0  0
 10 11  1  0  0  0  0
M  END
>  <InstanceId>
3PB8_AHN_X_390

>  <ChemCompId>
AHN

>  <PdbId>
3PB8

>  <ChainId>
X

>  <ResidueNumber>
390

>  <InsertionCode>


>  <Model>
1

>  <AltIds>


>  <MissingHeavyAtoms>
0

>  <ObservedFormula>
C7 N3 O

>  <Name>
N-[2-(1H-IMIDAZOL-4-YL)ETHYL]ACETAMIDE

>  <SystematicName>
N-[2-(1H-imidazol-4-yl)ethyl]ethanamide

>  <Synonyms>
N-ACETYLHISTAMINE

>  <Type>
NON-POLYMER

>  <Formula>
C7 H11 N3 O

>  <MolecularWeight>
153.182

>  <ModifiedDate>
2020-06-17

>  <Parent>


>  <OneLetterCode>


>  <SubcomponentList>


>  <AmbiguousFlag>
N

>  <InChI>
InChI=1S/C7H11N3O/c1-6(11)9-3-2-7-4-8-5-10-7/h4-5H,2-3H2,1H3,(H,8,10)(H,9,11)

>  <InChIKey>
XJWPISBUKWZALE-UHFFFAOYSA-N

>  <SMILES>
CC(=O)NCCc1c[nH]cn1

$$$$
