2QD8_065_B_404
  RCSB PDB08012017493D
Coordinates from PDB:2QD8:B:404 Model:1 without hydrogens
 40 44  0  0  0  0            999 V2000
   20.7090   27.7160   14.8540   C 0  0  0  0  0  0  0  0  0  0  0  0
   21.5860   28.7490   14.7200   O 0  0  0  0  0  0  0  0  0  0  0  0
   22.8190   28.2580   15.1430   C 0  0  0  0  0  0  0  0  0  0  0  0
   22.6870   26.9580   15.5850   O 0  0  0  0  0  0  0  0  0  0  0  0
   21.3650   26.6280   15.4210   C 0  0  0  0  0  0  0  0  0  0  0  0
   20.6830   25.4480   15.6980   C 0  0  0  0  0  0  0  0  0  0  0  0
   19.3350   25.4000   15.4050   C 0  0  0  0  0  0  0  0  0  0  0  0
   18.6950   26.4650   14.7960   C 0  0  0  0  0  0  0  0  0  0  0  0
   19.3760   27.6400   14.5180   C 0  0  0  0  0  0  0  0  0  0  0  0
   18.4100   23.9910   15.8940   S 0  0  0  0  0  0  0  0  0  0  0  0
   17.2920   23.8100   14.9690   O 0  0  0  0  0  0  0  0  0  0  0  0
   19.3530   22.8500   16.0300   O 0  0  0  0  0  0  0  0  0  0  0  0
   17.7780   24.2250   17.3930   N 0  0  0  0  0  0  0  0  0  0  0  0
   18.7330   24.4620   18.4530   C 0  0  0  0  0  0  0  0  0  0  0  0
   18.3290   23.8850   19.8230   C 0  0  0  0  0  0  0  0  0  0  0  0
   18.2060   22.3750   19.7590   C 0  0  0  0  0  0  0  0  0  0  0  0
   19.4010   24.2830   20.8460   C 0  0  0  0  0  0  0  0  0  0  0  0
   16.5280   24.9640   17.4540   C 0  0  0  0  0  0  0  0  0  0  0  0
   15.3760   24.0910   17.9560   C 0  0  0  0  0  0  0  0  0  0  0  0
   14.2200   24.8620   18.2540   O 0  0  0  0  0  0  0  0  0  0  0  0
   14.9920   22.9510   17.0200   C 0  0  0  0  0  0  0  0  0  0  0  0
   14.1330   22.0470   17.7640   N 0  0  0  0  0  0  0  0  0  0  0  0
   14.4210   20.7930   18.0960   C 0  0  0  0  0  0  0  0  0  0  0  0
   15.4840   20.2190   17.8230   O 0  0  0  0  0  0  0  0  0  0  0  0
   13.4160   20.1810   18.7560   O 0  0  0  0  0  0  0  0  0  0  0  0
   13.6080   18.7930   19.0350   C 0  0  0  0  0  0  0  0  0  0  0  0
   13.0130   18.5840   20.4330   C 0  0  0  0  0  0  0  0  0  0  0  0
   11.5790   18.5830   20.2550   O 0  0  0  0  0  0  0  0  0  0  0  0
   11.3230   18.0010   18.9890   C 0  0  0  0  0  0  0  0  0  0  0  0
   10.3890   18.8400   18.2990   O 0  0  0  0  0  0  0  0  0  0  0  0
   11.0500   19.4490   17.2120   C 0  0  0  0  0  0  0  0  0  0  0  0
   12.2280   18.5370   16.8290   C 0  0  0  0  0  0  0  0  0  0  0  0
   12.6220   17.9720   18.1950   C 0  0  0  0  0  0  0  0  0  0  0  0
   14.2230   23.4030   15.7760   C 0  0  0  0  0  0  0  0  0  0  0  0
   12.5820   21.7530   14.7410   C 0  0  0  0  0  0  0  0  0  0  0  0
   12.2640   20.6450   13.9600   C 0  0  0  0  0  0  0  0  0  0  0  0
   13.2560   19.9650   13.3040   C 0  0  0  0  0  0  0  0  0  0  0  0
   14.5520   20.4170   13.4440   C 0  0  0  0  0  0  0  0  0  0  0  0
   14.8770   21.5280   14.2140   C 0  0  0  0  0  0  0  0  0  0  0  0
   13.8760   22.2150   14.8920   C 0  0  0  0  0  0  0  0  0  0  0  0
  1  9  1  0  0  0  0
  1  2  1  0  0  0  0
  1  5  2  0  0  0  0
  2  3  1  0  0  0  0
  3  4  1  0  0  0  0
  4  5  1  0  0  0  0
  5  6  1  0  0  0  0
  6  7  2  0  0  0  0
  7 10  1  0  0  0  0
  7  8  1  0  0  0  0
  8  9  2  0  0  0  0
 10 13  1  0  0  0  0
 10 11  2  0  0  0  0
 10 12  2  0  0  0  0
 13 14  1  0  0  0  0
 13 18  1  0  0  0  0
 14 15  1  0  0  0  0
 15 16  1  0  0  0  0
 15 17  1  0  0  0  0
 18 19  1  0  0  0  0
 19 20  1  0  0  0  0
 19 21  1  0  0  0  0
 21 34  1  0  0  0  0
 21 22  1  0  0  0  0
 22 23  1  0  0  0  0
 23 24  2  0  0  0  0
 23 25  1  0  0  0  0
 25 26  1  0  0  0  0
 26 27  1  0  0  0  0
 26 33  1  0  0  0  0
 27 28  1  0  0  0  0
 28 29  1  0  0  0  0
 29 30  1  0  0  0  0
 29 33  1  0  0  0  0
 30 31  1  0  0  0  0
 31 32  1  0  0  0  0
 32 33  1  0  0  0  0
 34 40  1  0  0  0  0
 35 40  1  0  0  0  0
 35 36  2  0  0  0  0
 36 37  1  0  0  0  0
 37 38  2  0  0  0  0
 38 39  1  0  0  0  0
 39 40  2  0  0  0  0
M  END
>  <InstanceId>
2QD8_065_B_404

>  <ChemCompId>
065

>  <PdbId>
2QD8

>  <ChainId>
B

>  <ResidueNumber>
404

>  <InsertionCode>


>  <Model>
1

>  <AltIds>


>  <MissingHeavyAtoms>
0

>  <ObservedFormula>
C28 N2 O9 S

>  <Name>
(3R,3AS,6AR)-HEXAHYDROFURO[2,3-B]FURAN-3-YL(2S,3R)-3-HYDROXY-4-(N-ISOBUTYLBENZO[D][1,3]DIOXOLE-5-SULFONAMIDO)-1-PHENYLBUTAN-2-YLCARBAMATE

>  <SystematicName>
[(3R,3aS,6aR)-2,3,3a,4,5,6a-hexahydrofuro[5,4-b]furan-3-yl] N-[(2S,3R)-4-(1,3-benzodioxol-5-ylsulfonyl-(2-methylpropyl)amino)-3-hydroxy-1-phenyl-butan-2-yl]carbamate

>  <Synonyms>
RL-98065; [(1R,5S,6R)-2,8-DIOXABICYCLO[3.3.0]OCT-6-YL]N-[(2S,3R)-4-[(3,4-METHYLENEDIOXYPHENYL)SULFONYL-(2-METHYLPROPYL)AMINO]-3-HYDROXY-1-PHENYL-BUTAN-2-YL] CARBAMATE

>  <Type>
NON-POLYMER

>  <Formula>
C28 H36 N2 O9 S

>  <MolecularWeight>
576.658

>  <ModifiedDate>
2020-05-26

>  <Parent>


>  <OneLetterCode>


>  <SubcomponentList>


>  <AmbiguousFlag>


>  <InChI>
InChI=1S/C28H36N2O9S/c1-18(2)14-30(40(33,34)20-8-9-24-25(13-20)38-17-37-24)15-23(31)22(12-19-6-4-3-5-7-19)29-28(32)39-26-16-36-27-21(26)10-11-35-27/h3-9,13,18,21-23,26-27,31H,10-12,14-17H2,1-2H3,(H,29,32)/t21-,22-,23+,26-,27+/m0/s1

>  <InChIKey>
HNEIRZJZTYYDES-VPZBFSRCSA-N

>  <SMILES>
CC(C)C[N@@](C[C@H]([C@H](Cc1ccccc1)NC(=O)O[C@H]2CO[C@@H]3[C@H]2CCO3)O)S(=O)(=O)c4ccc5c(c4)OCO5

$$$$
