1NW4_IMH_A_301
  RCSB PDB08012015353D
Coordinates from PDB:1NW4:A:301 Model:1 without hydrogens
 19 21  0  0  0  0            999 V2000
    7.4180    1.1570   94.6480   O 0  0  0  0  0  0  0  0  0  0  0  0
    8.6520    1.3670   93.9700   C 0  0  0  0  0  0  0  0  0  0  0  0
    8.3860    1.3530   92.5090   C 0  0  0  0  0  0  0  0  0  0  0  0
    7.4440    2.3560   92.1400   N 0  0  0  0  0  0  0  0  0  0  0  0
    9.6400    1.6000   91.7260   C 0  0  0  0  0  0  0  0  0  0  0  0
    9.5810    0.7130   90.6020   O 0  0  0  0  0  0  0  0  0  0  0  0
    9.5160    3.0410   91.3480   C 0  0  0  0  0  0  0  0  0  0  0  0
    9.9980    3.2540   90.0160   O 0  0  0  0  0  0  0  0  0  0  0  0
    8.0360    3.4550   91.4630   C 0  0  0  0  0  0  0  0  0  0  0  0
    7.8230    4.6840   92.3660   C 0  0  0  0  0  0  0  0  0  0  0  0
    6.5780    5.1940   92.7270   C 0  0  0  0  0  0  0  0  0  0  0  0
    6.6120    6.2500   93.5050   N 0  0  0  0  0  0  0  0  0  0  0  0
    7.9650    6.4990   93.7090   C 0  0  0  0  0  0  0  0  0  0  0  0
    8.6010    7.5390   94.4790   C 0  0  0  0  0  0  0  0  0  0  0  0
    8.0430    8.4320   95.1270   O 0  0  0  0  0  0  0  0  0  0  0  0
   10.0110    7.4730   94.4520   N 0  0  0  0  0  0  0  0  0  0  0  0
   10.7440    6.5040   93.7530   C 0  0  0  0  0  0  0  0  0  0  0  0
   10.1430    5.5140   93.0180   N 0  0  0  0  0  0  0  0  0  0  0  0
    8.7460    5.5570   93.0250   C 0  0  0  0  0  0  0  0  0  0  0  0
  1  2  1  0  0  0  0
  2  3  1  0  0  0  0
  3  4  1  0  0  0  0
  3  5  1  0  0  0  0
  4  9  1  0  0  0  0
  5  6  1  0  0  0  0
  5  7  1  0  0  0  0
  7  8  1  0  0  0  0
  7  9  1  0  0  0  0
  9 10  1  0  0  0  0
 10 11  2  0  0  0  0
 10 19  1  0  0  0  0
 11 12  1  0  0  0  0
 12 13  1  0  0  0  0
 13 14  1  0  0  0  0
 13 19  2  0  0  0  0
 14 15  1  0  0  0  0
 14 16  2  0  0  0  0
 16 17  1  0  0  0  0
 17 18  2  0  0  0  0
 18 19  1  0  0  0  0
M  END
>  <InstanceId>
1NW4_IMH_A_301

>  <ChemCompId>
IMH

>  <PdbId>
1NW4

>  <ChainId>
A

>  <ResidueNumber>
301

>  <InsertionCode>


>  <Model>
1

>  <AltIds>


>  <MissingHeavyAtoms>
0

>  <ObservedFormula>
C11 N4 O4

>  <Name>
1,4-DIDEOXY-4-AZA-1-(S)-(9-DEAZAHYPOXANTHIN-9-YL)-D-RIBITOL

>  <SystematicName>
(2R,3R,4S,5S)-2-(hydroxymethyl)-5-(4-hydroxy-5H-pyrrolo[5,4-e]pyrimidin-7-yl)pyrrolidine-3,4-diol

>  <Synonyms>


>  <Type>
NON-POLYMER

>  <Formula>
C11 H14 N4 O4

>  <MolecularWeight>
266.253

>  <ModifiedDate>
2011-06-04

>  <Parent>


>  <OneLetterCode>


>  <SubcomponentList>


>  <AmbiguousFlag>
N

>  <InChI>
InChI=1S/C11H14N4O4/c16-2-5-9(17)10(18)7(15-5)4-1-12-8-6(4)13-3-14-11(8)19/h1,3,5,7,9-10,12,15-18H,2H2,(H,13,14,19)/t5-,7+,9-,10+/m1/s1

>  <InChIKey>
IWKXDMQDITUYRK-KUBHLMPHSA-N

>  <SMILES>
c1c(c2c([nH]1)c(ncn2)O)[C@H]3[C@@H]([C@@H]([C@H](N3)CO)O)O

$$$$
