5JA0_FPP_F_402
  RCSB PDB08022001533D
Coordinates from PDB:5JA0:F:402 Model:1 without hydrogens
 24 23  0  0  0  0            999 V2000
    5.0990   76.5450   28.6140   C 0  0  0  0  0  0  0  0  0  0  0  0
    5.2910   75.0980   28.5880   O 0  0  0  0  0  0  0  0  0  0  0  0
    3.6060   76.6670   28.9160   C 0  0  0  0  0  0  0  0  0  0  0  0
    2.8750   77.7450   28.5810   C 0  0  0  0  0  0  0  0  0  0  0  0
    3.4740   78.9710   27.9490   C 0  0  0  0  0  0  0  0  0  0  0  0
    1.3960   77.7360   28.9030   C 0  0  0  0  0  0  0  0  0  0  0  0
    0.5280   77.3780   27.7110   C 0  0  0  0  0  0  0  0  0  0  0  0
   -0.9720   77.4100   28.0650   C 0  0  0  0  0  0  0  0  0  0  0  0
   -1.9260   77.4100   27.1120   C 0  0  0  0  0  0  0  0  0  0  0  0
   -1.6320   77.3420   25.6270   C 0  0  0  0  0  0  0  0  0  0  0  0
   -3.3870   77.4140   27.5720   C 0  0  0  0  0  0  0  0  0  0  0  0
   -4.2840   78.3500   26.7650   C 0  0  0  0  0  0  0  0  0  0  0  0
   -4.0570   79.7780   27.1550   C 0  0  0  0  0  0  0  0  0  0  0  0
   -4.8690   80.6100   27.8590   C 0  0  0  0  0  0  0  0  0  0  0  0
   -6.2270   80.2830   28.3940   C 0  0  0  0  0  0  0  0  0  0  0  0
   -4.3850   81.9950   28.1250   C 0  0  0  0  0  0  0  0  0  0  0  0
    6.1250   74.2810   27.4940   P 0  0  0  0  0  0  0  0  0  0  0  0
    6.0670   72.8810   28.0300   O 0  0  0  0  0  0  0  0  0  0  0  0
    5.6470   74.5340   26.0700   O 0  0  0  0  0  0  0  0  0  0  0  0
    7.5810   74.8210   27.9570   O 0  0  0  0  0  0  0  0  0  0  0  0
    8.9540   74.4730   27.2010   P 0  0  0  0  0  0  0  0  0  0  0  0
    8.8470   75.2250   25.8700   O 0  0  0  0  0  0  0  0  0  0  0  0
    8.9380   72.9930   27.0730   O 0  0  0  0  0  0  0  0  0  0  0  0
    9.9520   75.2000   27.9910   O 0  0  0  0  0  0  0  0  0  0  0  0
  1  2  1  0  0  0  0
  1  3  1  0  0  0  0
  2 17  1  0  0  0  0
  3  4  2  0  0  0  0
  4  5  1  0  0  0  0
  4  6  1  0  0  0  0
  6  7  1  0  0  0  0
  7  8  1  0  0  0  0
  8  9  2  0  0  0  0
  9 10  1  0  0  0  0
  9 11  1  0  0  0  0
 11 12  1  0  0  0  0
 12 13  1  0  0  0  0
 13 14  2  0  0  0  0
 14 15  1  0  0  0  0
 14 16  1  0  0  0  0
 17 18  2  0  0  0  0
 17 19  1  0  0  0  0
 17 20  1  0  0  0  0
 20 21  1  0  0  0  0
 21 22  2  0  0  0  0
 21 23  1  0  0  0  0
 21 24  1  0  0  0  0
M  END
>  <InstanceId>
5JA0_FPP_F_402

>  <ChemCompId>
FPP

>  <PdbId>
5JA0

>  <ChainId>
F

>  <ResidueNumber>
402

>  <InsertionCode>


>  <Model>
1

>  <AltIds>


>  <MissingHeavyAtoms>
0

>  <ObservedFormula>
C15 O7 P2

>  <Name>
FARNESYL DIPHOSPHATE

>  <SystematicName>
phosphono [(2E,6E)-3,7,11-trimethyldodeca-2,6,10-trienyl] hydrogen phosphate

>  <Synonyms>


>  <Type>
NON-POLYMER

>  <Formula>
C15 H28 O7 P2

>  <MolecularWeight>
382.326

>  <ModifiedDate>
2011-06-04

>  <Parent>


>  <OneLetterCode>


>  <SubcomponentList>


>  <AmbiguousFlag>
N

>  <InChI>
InChI=1S/C15H28O7P2/c1-13(2)7-5-8-14(3)9-6-10-15(4)11-12-21-24(19,20)22-23(16,17)18/h7,9,11H,5-6,8,10,12H2,1-4H3,(H,19,20)(H2,16,17,18)/b14-9+,15-11+

>  <InChIKey>
VWFJDQUYCIWHTN-YFVJMOTDSA-N

>  <SMILES>
CC(=CCC/C(=C/CC/C(=C/CO[P@@](=O)(O)OP(=O)(O)O)/C)/C)C

$$$$
