4GNY_SDS_A_201
  RCSB PDB08012021503D
Coordinates from PDB:4GNY:A:201 Model:1 without hydrogens
 17 16  0  0  0  0            999 V2000
   25.8550   41.9890   17.5910   S 0  0  0  0  0  0  0  0  0  0  0  0
   26.0360   42.8360   16.4370   O 0  0  0  0  0  0  0  0  0  0  0  0
   25.1200   40.7540   17.2560   O 0  0  0  0  0  0  0  0  0  0  0  0
   27.1480   41.6690   18.2190   O 0  0  0  0  0  0  0  0  0  0  0  0
   25.0610   42.8460   18.4380   O 0  0  0  0  0  0  0  0  0  0  0  0
   23.8260   40.7930   16.7640   C 0  0  0  0  0  0  0  0  0  0  0  0
   22.2520   28.4280   20.6220   C 0  0  0  0  0  0  0  0  0  0  0  0
   22.5030   29.8840   20.3940   C 0  0  0  0  0  0  0  0  0  0  0  0
   23.1210   30.1190   19.0630   C 0  0  0  0  0  0  0  0  0  0  0  0
   23.7960   31.4470   19.0030   C 0  0  0  0  0  0  0  0  0  0  0  0
   22.8720   32.5990   19.2180   C 0  0  0  0  0  0  0  0  0  0  0  0
   23.3880   33.7660   18.4360   C 0  0  0  0  0  0  0  0  0  0  0  0
   22.7940   35.0660   18.8480   C 0  0  0  0  0  0  0  0  0  0  0  0
   23.4400   36.1220   18.0190   C 0  0  0  0  0  0  0  0  0  0  0  0
   22.8300   37.4630   18.2380   C 0  0  0  0  0  0  0  0  0  0  0  0
   23.6520   38.4760   17.5130   C 0  0  0  0  0  0  0  0  0  0  0  0
   22.9680   39.8040   17.4880   C 0  0  0  0  0  0  0  0  0  0  0  0
  1  2  2  0  0  0  0
  1  3  1  0  0  0  0
  1  4  1  0  0  0  0
  1  5  2  0  0  0  0
  3  6  1  0  0  0  0
  6 17  1  0  0  0  0
  7  8  1  0  0  0  0
  8  9  1  0  0  0  0
  9 10  1  0  0  0  0
 10 11  1  0  0  0  0
 11 12  1  0  0  0  0
 12 13  1  0  0  0  0
 13 14  1  0  0  0  0
 14 15  1  0  0  0  0
 15 16  1  0  0  0  0
 16 17  1  0  0  0  0
M  END
>  <InstanceId>
4GNY_SDS_A_201

>  <ChemCompId>
SDS

>  <PdbId>
4GNY

>  <ChainId>
A

>  <ResidueNumber>
201

>  <InsertionCode>


>  <Model>
1

>  <AltIds>


>  <MissingHeavyAtoms>
0

>  <ObservedFormula>
C12 O4 S

>  <Name>
DODECYL SULFATE

>  <SystematicName>
dodecyl hydrogen sulfate

>  <Synonyms>


>  <Type>
NON-POLYMER

>  <Formula>
C12 H26 O4 S

>  <MolecularWeight>
266.397

>  <ModifiedDate>
2011-06-04

>  <Parent>


>  <OneLetterCode>


>  <SubcomponentList>


>  <AmbiguousFlag>
N

>  <InChI>
InChI=1S/C12H26O4S/c1-2-3-4-5-6-7-8-9-10-11-12-16-17(13,14)15/h2-12H2,1H3,(H,13,14,15)

>  <InChIKey>
MOTZDAYCYVMXPC-UHFFFAOYSA-N

>  <SMILES>
CCCCCCCCCCCCOS(=O)(=O)O

$$$$
