2RKF_AB1_A_501
  RCSB PDB08012017553D
Coordinates from PDB:2RKF:A:501 Model:1 without hydrogens
 46 49  0  0  0  0            999 V2000
  -17.1830    4.8640   -7.3260   C 0  0  0  0  0  0  0  0  0  0  0  0
  -16.5540    2.6760   -6.1360   C 0  0  0  0  0  0  0  0  0  0  0  0
  -17.9450    2.7180   -5.6600   N 0  0  0  0  0  0  0  0  0  0  0  0
  -18.8120    3.6970   -5.9170   C 0  0  0  0  0  0  0  0  0  0  0  0
  -18.3440    4.8060   -6.4570   N 0  0  0  0  0  0  0  0  0  0  0  0
  -18.5930   -3.3210   -0.0580   C 0  0  0  0  0  0  0  0  0  0  0  0
  -19.2050   -4.4150    0.5570   C 0  0  0  0  0  0  0  0  0  0  0  0
  -18.4470   -5.4820    1.0440   C 0  0  0  0  0  0  0  0  0  0  0  0
  -17.0560   -5.4630    0.9210   C 0  0  0  0  0  0  0  0  0  0  0  0
  -16.4400   -4.3710    0.2990   C 0  0  0  0  0  0  0  0  0  0  0  0
  -17.2030   -3.3080   -0.1870   C 0  0  0  0  0  0  0  0  0  0  0  0
  -19.9970    3.5830   -5.7040   O 0  0  0  0  0  0  0  0  0  0  0  0
  -18.3980    1.5650   -4.8670   C 0  0  0  0  0  0  0  0  0  0  0  0
  -17.9180    1.6610   -3.4350   C 0  0  0  0  0  0  0  0  0  0  0  0
  -18.8130    2.1500   -2.5770   N 0  0  0  0  0  0  0  0  0  0  0  0
  -18.5100    2.3450   -1.1570   C 0  0  0  0  0  0  0  0  0  0  0  0
  -18.0390    0.2530   -5.5990   C 0  0  0  0  0  0  0  0  0  0  0  0
  -18.4320   -0.9790   -4.7940   C 0  0  0  0  0  0  0  0  0  0  0  0
  -18.6980    0.1640   -6.9740   C 0  0  0  0  0  0  0  0  0  0  0  0
  -16.7890    1.3300   -3.0980   O 0  0  0  0  0  0  0  0  0  0  0  0
  -15.5250    5.5050   -2.4300   C 0  0  0  0  0  0  0  0  0  0  0  0
  -16.0990    6.3700   -3.3590   C 0  0  0  0  0  0  0  0  0  0  0  0
  -17.4830    6.4180   -3.4780   C 0  0  0  0  0  0  0  0  0  0  0  0
  -18.2820    5.6040   -2.6710   C 0  0  0  0  0  0  0  0  0  0  0  0
  -17.7020    4.7240   -1.7480   C 0  0  0  0  0  0  0  0  0  0  0  0
  -16.3150    4.6840   -1.6270   C 0  0  0  0  0  0  0  0  0  0  0  0
  -18.5840    3.8520   -0.8770   C 0  0  0  0  0  0  0  0  0  0  0  0
  -19.6500    1.7170   -0.3580   C 0  0  0  0  0  0  0  0  0  0  0  0
  -19.9500    0.2660   -0.7280   C 0  0  0  0  0  0  0  0  0  0  0  0
  -18.9120   -0.7750   -0.2910   C 0  0  0  0  0  0  0  0  0  0  0  0
  -18.8090   -0.6950    1.1650   N 0  0  0  0  0  0  0  0  0  0  0  0
  -17.6820   -0.2900    1.7620   C 0  0  0  0  0  0  0  0  0  0  0  0
  -17.6530   -0.2420    3.2640   C 0  0  0  0  0  0  0  0  0  0  0  0
  -18.7670   -0.9080    3.8690   O 0  0  0  0  0  0  0  0  0  0  0  0
  -18.5830   -1.5070    5.0930   C 0  0  0  0  0  0  0  0  0  0  0  0
  -21.1780   -0.0690   -0.0950   O 0  0  0  0  0  0  0  0  0  0  0  0
  -19.4580   -2.1780   -0.5800   C 0  0  0  0  0  0  0  0  0  0  0  0
  -16.6800    0.0410    1.1530   O 0  0  0  0  0  0  0  0  0  0  0  0
  -18.4590   -0.7380    6.2550   C 0  0  0  0  0  0  0  0  0  0  0  0
  -18.2590   -1.3580    7.4900   C 0  0  0  0  0  0  0  0  0  0  0  0
  -18.1820   -2.7440    7.5680   C 0  0  0  0  0  0  0  0  0  0  0  0
  -18.2980   -3.5140    6.4140   C 0  0  0  0  0  0  0  0  0  0  0  0
  -18.4940   -2.8980    5.1810   C 0  0  0  0  0  0  0  0  0  0  0  0
  -18.6140   -3.7620    3.9600   C 0  0  0  0  0  0  0  0  0  0  0  0
  -18.5460    0.7650    6.2180   C 0  0  0  0  0  0  0  0  0  0  0  0
  -16.1210    4.0900   -6.5550   C 0  0  0  0  0  0  0  0  0  0  0  0
  1  5  1  0  0  0  0
  1 46  1  0  0  0  0
  2  3  1  0  0  0  0
  2 46  1  0  0  0  0
  3  4  1  0  0  0  0
  3 13  1  0  0  0  0
  4  5  1  0  0  0  0
  4 12  2  0  0  0  0
  6  7  2  0  0  0  0
  6 11  1  0  0  0  0
  6 37  1  0  0  0  0
  7  8  1  0  0  0  0
  8  9  2  0  0  0  0
  9 10  1  0  0  0  0
 10 11  2  0  0  0  0
 13 14  1  0  0  0  0
 13 17  1  0  0  0  0
 14 15  1  0  0  0  0
 14 20  2  0  0  0  0
 15 16  1  0  0  0  0
 16 27  1  0  0  0  0
 16 28  1  0  0  0  0
 17 18  1  0  0  0  0
 17 19  1  0  0  0  0
 21 22  2  0  0  0  0
 21 26  1  0  0  0  0
 22 23  1  0  0  0  0
 23 24  2  0  0  0  0
 24 25  1  0  0  0  0
 25 26  2  0  0  0  0
 25 27  1  0  0  0  0
 28 29  1  0  0  0  0
 29 30  1  0  0  0  0
 29 36  1  0  0  0  0
 30 31  1  0  0  0  0
 30 37  1  0  0  0  0
 31 32  1  0  0  0  0
 32 33  1  0  0  0  0
 32 38  2  0  0  0  0
 33 34  1  0  0  0  0
 34 35  1  0  0  0  0
 35 39  2  0  0  0  0
 35 43  1  0  0  0  0
 39 40  1  0  0  0  0
 39 45  1  0  0  0  0
 40 41  2  0  0  0  0
 41 42  1  0  0  0  0
 42 43  2  0  0  0  0
 43 44  1  0  0  0  0
M  END
>  <InstanceId>
2RKF_AB1_A_501

>  <ChemCompId>
AB1

>  <PdbId>
2RKF

>  <ChainId>
A

>  <ResidueNumber>
501

>  <InsertionCode>


>  <Model>
1

>  <AltIds>


>  <MissingHeavyAtoms>
0

>  <ObservedFormula>
C37 N4 O5

>  <Name>
N-{1-BENZYL-4-[2-(2,6-DIMETHYL-PHENOXY)-ACETYLAMINO]-3-HYDROXY-5-PHENYL-PENTYL}-3-METHYL-2-(2-OXO-TETRAHYDRO-PYRIMIDIN-1-YL)-BUTYRAMIDE

>  <SystematicName>
(2S)-N-[(2S,4S,5S)-5-[2-(2,6-dimethylphenoxy)ethanoylamino]-4-hydroxy-1,6-diphenyl-hexan-2-yl]-3-methyl-2-(2-oxo-1,3-diazinan-1-yl)butanamide

>  <Synonyms>
ABT-378; LOPINAVIR

>  <Type>
NON-POLYMER

>  <Formula>
C37 H48 N4 O5

>  <MolecularWeight>
628.801

>  <ModifiedDate>
2020-05-26

>  <Parent>


>  <OneLetterCode>


>  <SubcomponentList>


>  <AmbiguousFlag>
N

>  <InChI>
InChI=1S/C37H48N4O5/c1-25(2)34(41-20-12-19-38-37(41)45)36(44)39-30(21-28-15-7-5-8-16-28)23-32(42)31(22-29-17-9-6-10-18-29)40-33(43)24-46-35-26(3)13-11-14-27(35)4/h5-11,13-18,25,30-32,34,42H,12,19-24H2,1-4H3,(H,38,45)(H,39,44)(H,40,43)/t30-,31-,32-,34-/m0/s1

>  <InChIKey>
KJHKTHWMRKYKJE-SUGCFTRWSA-N

>  <SMILES>
Cc1cccc(c1OCC(=O)N[C@@H](Cc2ccccc2)[C@H](C[C@H](Cc3ccccc3)NC(=O)[C@H](C(C)C)N4CCCNC4=O)O)C

$$$$
