6B7A_CWM_A_201
  RCSB PDB08022004013D
Coordinates from PDB:6B7A:A:201 Model:1 without hydrogens
 11 12  0  0  0  0            999 V2000
  -34.1910  -32.4170   55.2970   C 0  0  0  0  0  0  0  0  0  0  0  0
  -35.2560  -32.6920   54.4510   C 0  0  0  0  0  0  0  0  0  0  0  0
  -35.9280  -33.9020   54.5240   C 0  0  0  0  0  0  0  0  0  0  0  0
  -35.4240  -37.8860   57.4130   C 0  0  0  0  0  0  0  0  0  0  0  0
  -33.7750  -33.3580   56.2350   C 0  0  0  0  0  0  0  0  0  0  0  0
  -34.4650  -34.5790   56.2820   C 0  0  0  0  0  0  0  0  0  0  0  0
  -35.5170  -34.8490   55.4600   C 0  0  0  0  0  0  0  0  0  0  0  0
  -35.2710  -36.5640   56.7440   C 0  0  0  0  0  0  0  0  0  0  0  0
  -34.3090  -35.6760   57.0990   N 0  0  0  0  0  0  0  0  0  0  0  0
  -36.0330  -36.1150   55.7530   N 0  0  0  0  0  0  0  0  0  0  0  0
  -32.7480  -33.0730   57.0780   O 0  0  0  0  0  0  0  0  0  0  0  0
 10  7  1  0  0  0  0
 10  8  2  0  0  0  0
  3  7  2  0  0  0  0
  3  2  1  0  0  0  0
  7  6  1  0  0  0  0
  4  8  1  0  0  0  0
  8  9  1  0  0  0  0
  2  1  2  0  0  0  0
  6  9  1  0  0  0  0
  6  5  2  0  0  0  0
  1  5  1  0  0  0  0
  5 11  1  0  0  0  0
M  END
>  <InstanceId>
6B7A_CWM_A_201

>  <ChemCompId>
CWM

>  <PdbId>
6B7A

>  <ChainId>
A

>  <ResidueNumber>
201

>  <InsertionCode>


>  <Model>
1

>  <AltIds>


>  <MissingHeavyAtoms>
0

>  <ObservedFormula>
C8 N2 O

>  <Name>
2-methyl-1H-benzimidazol-7-ol

>  <SystematicName>
2-methyl-3~{H}-benzimidazol-4-ol

>  <Synonyms>


>  <Type>
NON-POLYMER

>  <Formula>
C8 H8 N2 O

>  <MolecularWeight>
148.162

>  <ModifiedDate>
2017-12-22

>  <Parent>


>  <OneLetterCode>


>  <SubcomponentList>


>  <AmbiguousFlag>
N

>  <InChI>
InChI=1S/C8H8N2O/c1-5-9-6-3-2-4-7(11)8(6)10-5/h2-4,11H,1H3,(H,9,10)

>  <InChIKey>
HLPAESMITTURFN-UHFFFAOYSA-N

>  <SMILES>
Cc1[nH]c2c(n1)cccc2O

$$$$
