1PPC_MID_E_5
  RCSB PDB08012015443D
Coordinates from PDB:1PPC:E:5 Model:1 without hydrogens
 37 40  0  0  0  0            999 V2000
   -5.8270    4.7820   25.9170   S 0  0  0  0  0  0  0  0  0  0  0  0
   -6.8830    5.7670   26.4350   O 0  0  0  0  0  0  0  0  0  0  0  0
   -6.3850    3.3620   25.9520   O 0  0  0  0  0  0  0  0  0  0  0  0
   -3.7610    3.9040   27.5800   C 0  0  0  0  0  0  0  0  0  0  0  0
   -4.3660    4.9560   26.9430   C 0  0  0  0  0  0  0  0  0  0  0  0
   -3.8740    6.2180   27.1290   C 0  0  0  0  0  0  0  0  0  0  0  0
   -2.8230    6.4310   27.9910   C 0  0  0  0  0  0  0  0  0  0  0  0
   -1.1660    5.6080   29.4710   C 0  0  0  0  0  0  0  0  0  0  0  0
   -0.5380    4.5410   30.0870   C 0  0  0  0  0  0  0  0  0  0  0  0
   -1.0030    3.2540   29.8900   C 0  0  0  0  0  0  0  0  0  0  0  0
   -2.0960    3.0180   29.0710   C 0  0  0  0  0  0  0  0  0  0  0  0
   -2.6860    4.0860   28.4240   C 0  0  0  0  0  0  0  0  0  0  0  0
   -2.2320    5.3650   28.6300   C 0  0  0  0  0  0  0  0  0  0  0  0
   -5.5520    5.0200   24.2980   N 0  0  0  0  0  0  0  0  0  0  0  0
   -4.6090    4.0870   23.7300   C 0  0  0  0  0  0  0  0  0  0  0  0
   -3.2810    4.7140   23.3230   C 0  0  0  0  0  0  0  0  0  0  0  0
   -2.9600    5.8630   23.6500   O 0  0  0  0  0  0  0  0  0  0  0  0
   -2.5950    3.9030   22.4990   N 0  0  0  0  0  0  0  0  0  0  0  0
   -1.2700    4.1600   21.9520   C 0  0  0  0  0  0  0  0  0  0  0  0
   -0.4280    2.9070   22.1940   C 0  0  0  0  0  0  0  0  0  0  0  0
   -0.2020    2.1160   21.2720   O 0  0  0  0  0  0  0  0  0  0  0  0
   -1.3330    4.4800   20.4500   C 0  0  0  0  0  0  0  0  0  0  0  0
   -2.0020    5.8060   20.1500   C 0  0  0  0  0  0  0  0  0  0  0  0
   -3.3810    5.9010   20.0920   C 0  0  0  0  0  0  0  0  0  0  0  0
   -1.2360    6.9410   20.0230   C 0  0  0  0  0  0  0  0  0  0  0  0
   -3.9930    7.1200   19.8710   C 0  0  0  0  0  0  0  0  0  0  0  0
   -1.8530    8.1550   19.7970   C 0  0  0  0  0  0  0  0  0  0  0  0
   -3.2370    8.2680   19.7390   C 0  0  0  0  0  0  0  0  0  0  0  0
   -3.8330    9.5270   19.5790   C 0  0  0  0  0  0  0  0  0  0  0  0
   -5.1270    9.7230   19.8940   N 0  0  0  0  0  0  0  0  0  0  0  0
   -3.0670   10.5440   19.1670   N 0  0  0  0  0  0  0  0  0  0  0  0
    0.0740    2.6870   23.4200   N 0  0  0  0  0  0  0  0  0  0  0  0
    0.0190    3.6720   24.4880   C 0  0  0  0  0  0  0  0  0  0  0  0
   -0.7040    3.0330   25.6500   C 0  0  0  0  0  0  0  0  0  0  0  0
    0.1550    1.8800   26.1460   C 0  0  0  0  0  0  0  0  0  0  0  0
    0.3010    0.9040   24.9820   C 0  0  0  0  0  0  0  0  0  0  0  0
    0.9050    1.5360   23.7450   C 0  0  0  0  0  0  0  0  0  0  0  0
  1  2  2  0  0  0  0
  1  3  2  0  0  0  0
  1  5  1  0  0  0  0
  4  5  2  0  0  0  0
  4 12  1  0  0  0  0
  5  6  1  0  0  0  0
  6  7  2  0  0  0  0
  7 13  1  0  0  0  0
  8  9  2  0  0  0  0
  8 13  1  0  0  0  0
  9 10  1  0  0  0  0
 10 11  2  0  0  0  0
 11 12  1  0  0  0  0
 12 13  2  0  0  0  0
 14 15  1  0  0  0  0
 15 16  1  0  0  0  0
 16 17  2  0  0  0  0
 18 19  1  0  0  0  0
 19 20  1  0  0  0  0
 19 22  1  0  0  0  0
 20 21  2  0  0  0  0
 22 23  1  0  0  0  0
 23 24  2  0  0  0  0
 23 25  1  0  0  0  0
 24 26  1  0  0  0  0
 25 27  2  0  0  0  0
 26 28  2  0  0  0  0
 27 28  1  0  0  0  0
 28 29  1  0  0  0  0
 29 30  2  0  0  0  0
 29 31  1  0  0  0  0
 32 33  1  0  0  0  0
 32 37  1  0  0  0  0
 33 34  1  0  0  0  0
 34 35  1  0  0  0  0
 35 36  1  0  0  0  0
 36 37  1  0  0  0  0
  1 14  1  0  0  0  0
 16 18  1  0  0  0  0
 20 32  1  0  0  0  0
M  END
>  <InstanceId>
1PPC_MID_E_5

>  <ChemCompId>
MID

>  <PdbId>
1PPC

>  <ChainId>
E

>  <ResidueNumber>
5

>  <InsertionCode>


>  <Model>
1

>  <AltIds>


>  <MissingHeavyAtoms>
0

>  <ObservedFormula>
C27 N5 O4 S

>  <Name>
1-[N-(naphthalen-2-ylsulfonyl)glycyl-4-carbamimidoyl-D-phenylalanyl]piperidine

>  <SystematicName>
N-[(2R)-3-(4-carbamimidoylphenyl)-1-oxo-1-piperidin-1-yl-propan-2-yl]-2-(naphthalen-2-ylsulfonylamino)ethanamide

>  <Synonyms>
NAPAP

>  <Type>
peptide-like

>  <Formula>
C27 H31 N5 O4 S

>  <MolecularWeight>
521.631

>  <ModifiedDate>
2011-06-04

>  <Parent>


>  <OneLetterCode>


>  <SubcomponentList>
NAS GLY APH PIP

>  <AmbiguousFlag>
N

>  <InChI>
InChI=1S/C27H31N5O4S/c28-26(29)21-10-8-19(9-11-21)16-24(27(34)32-14-4-1-5-15-32)31-25(33)18-30-37(35,36)23-13-12-20-6-2-3-7-22(20)17-23/h2-3,6-13,17,24,30H,1,4-5,14-16,18H2,(H3,28,29)(H,31,33)/t24-/m1/s1

>  <InChIKey>
XXTWZTPVNIYSJZ-XMMPIXPASA-N

>  <SMILES>
[H]/N=C(/c1ccc(cc1)C[C@H](C(=O)N2CCCCC2)NC(=O)CNS(=O)(=O)c3ccc4ccccc4c3)\N

$$$$
