1TSY_UMP_A_317
  RCSB PDB08012016023D
Coordinates from PDB:1TSY:A:317 Model:1 without hydrogens
 20 21  0  0  0  0            999 V2000
   14.4320   48.8460  -53.9840   N 0  0  0  0  0  0  0  0  0  0  0  0
   13.6810   47.7990  -53.4490   C 0  0  0  0  0  0  0  0  0  0  0  0
   12.9580   48.0870  -52.3080   N 0  0  0  0  0  0  0  0  0  0  0  0
   12.9180   49.3370  -51.6860   C 0  0  0  0  0  0  0  0  0  0  0  0
   13.7170   50.3590  -52.3230   C 0  0  0  0  0  0  0  0  0  0  0  0
   14.4450   50.0460  -53.4640   C 0  0  0  0  0  0  0  0  0  0  0  0
   13.5510   46.6740  -53.9080   O 0  0  0  0  0  0  0  0  0  0  0  0
   12.2290   49.5410  -50.6860   O 0  0  0  0  0  0  0  0  0  0  0  0
   15.4310   48.7120  -55.0260   C 0  0  0  0  0  0  0  0  0  0  0  0
   14.9880   48.4110  -56.4520   C 0  0  0  0  0  0  0  0  0  0  0  0
   16.2850   48.6140  -57.2230   C 0  0  0  0  0  0  0  0  0  0  0  0
   16.8830   49.9300  -56.7110   C 0  0  0  0  0  0  0  0  0  0  0  0
   17.1560   47.5630  -56.7960   O 0  0  0  0  0  0  0  0  0  0  0  0
   16.3330   49.8850  -55.3080   O 0  0  0  0  0  0  0  0  0  0  0  0
   16.3040   51.1290  -57.4720   C 0  0  0  0  0  0  0  0  0  0  0  0
   16.8970   51.2580  -58.8460   O 0  0  0  0  0  0  0  0  0  0  0  0
   15.9310   51.7260  -59.9750   P 0  0  0  0  0  0  0  0  0  0  0  0
   15.2600   53.0010  -59.6920   O 0  0  0  0  0  0  0  0  0  0  0  0
   16.4480   51.8180  -61.3870   O 0  0  0  0  0  0  0  0  0  0  0  0
   14.9570   50.6300  -59.8960   O 0  0  0  0  0  0  0  0  0  0  0  0
  1  2  1  0  0  0  0
  1  6  1  0  0  0  0
  1  9  1  0  0  0  0
  2  3  1  0  0  0  0
  2  7  2  0  0  0  0
  3  4  1  0  0  0  0
  4  5  1  0  0  0  0
  4  8  2  0  0  0  0
  5  6  2  0  0  0  0
  9 10  1  0  0  0  0
  9 14  1  0  0  0  0
 10 11  1  0  0  0  0
 11 12  1  0  0  0  0
 11 13  1  0  0  0  0
 12 14  1  0  0  0  0
 12 15  1  0  0  0  0
 15 16  1  0  0  0  0
 16 17  1  0  0  0  0
 17 18  2  0  0  0  0
 17 19  1  0  0  0  0
 17 20  1  0  0  0  0
M  END
>  <InstanceId>
1TSY_UMP_A_317

>  <ChemCompId>
UMP

>  <PdbId>
1TSY

>  <ChainId>
A

>  <ResidueNumber>
317

>  <InsertionCode>


>  <Model>
1

>  <AltIds>


>  <MissingHeavyAtoms>
0

>  <ObservedFormula>
C9 N2 O8 P

>  <Name>
2'-DEOXYURIDINE 5'-MONOPHOSPHATE

>  <SystematicName>
[(2R,3S,5R)-5-[2,4-bis(oxidanylidene)pyrimidin-1-yl]-3-oxidanyl-oxolan-2-yl]methyl dihydrogen phosphate

>  <Synonyms>
DUMP

>  <Type>
NON-POLYMER

>  <Formula>
C9 H13 N2 O8 P

>  <MolecularWeight>
308.182

>  <ModifiedDate>
2020-06-17

>  <Parent>


>  <OneLetterCode>
U

>  <SubcomponentList>


>  <AmbiguousFlag>
N

>  <InChI>
InChI=1S/C9H13N2O8P/c12-5-3-8(11-2-1-7(13)10-9(11)14)19-6(5)4-18-20(15,16)17/h1-2,5-6,8,12H,3-4H2,(H,10,13,14)(H2,15,16,17)/t5-,6+,8+/m0/s1

>  <InChIKey>
JSRLJPSBLDHEIO-SHYZEUOFSA-N

>  <SMILES>
C1[C@@H]([C@H](O[C@H]1N2C=CC(=O)NC2=O)COP(=O)(O)O)O

$$$$
