4RFR_RHN_B_301
  RCSB PDB08012023103D
Coordinates from PDB:4RFR:B:301 Model:1 without hydrogens
 21 23  0  0  0  0            999 V2000
   -4.3940    2.4690   -1.4880   O 0  0  0  0  0  0  0  0  0  0  0  0
   -2.0430    5.0570    2.1620   O 0  0  0  0  0  0  0  0  0  0  0  0
   -1.4710    0.5190    5.0400   O 0  0  0  0  0  0  0  0  0  0  0  0
   -4.3020    0.3140   -1.4270   O 0  0  0  0  0  0  0  0  0  0  0  0
   -0.6980    1.7670    7.0300   O 0  0  0  0  0  0  0  0  0  0  0  0
   -3.0470   -0.7210    3.2980   O 0  0  0  0  0  0  0  0  0  0  0  0
   -1.2850    5.2770    6.2920   C 0  0  0  0  0  0  0  0  0  0  0  0
   -0.9370    4.1190    6.9710   C 0  0  0  0  0  0  0  0  0  0  0  0
   -1.7030    5.2040    4.9590   C 0  0  0  0  0  0  0  0  0  0  0  0
   -3.5020    0.3860    1.3010   C 0  0  0  0  0  0  0  0  0  0  0  0
   -3.0630    2.7070    1.0500   C 0  0  0  0  0  0  0  0  0  0  0  0
   -4.0960    1.4230   -0.8770   C 0  0  0  0  0  0  0  0  0  0  0  0
   -3.5060    1.5060    0.5050   C 0  0  0  0  0  0  0  0  0  0  0  0
   -0.9960    2.8910    6.3220   C 0  0  0  0  0  0  0  0  0  0  0  0
   -2.9170    0.4000    2.5600   C 0  0  0  0  0  0  0  0  0  0  0  0
   -2.0980    3.9270    2.9420   C 0  0  0  0  0  0  0  0  0  0  0  0
   -1.5760    1.6400    4.2810   C 0  0  0  0  0  0  0  0  0  0  0  0
   -1.7100    3.9880    4.2820   C 0  0  0  0  0  0  0  0  0  0  0  0
   -2.5340    2.7460    2.3500   C 0  0  0  0  0  0  0  0  0  0  0  0
   -1.4910    2.8190    5.0110   C 0  0  0  0  0  0  0  0  0  0  0  0
   -2.3740    1.5680    3.0880   C 0  0  0  0  0  0  0  0  0  0  0  0
  1 12  2  0  0  0  0
 16  2  2  0  0  0  0
  3 17  2  0  0  0  0
 12  4  1  0  0  0  0
  5 14  1  0  0  0  0
  6 15  1  0  0  0  0
  8  7  2  0  0  0  0
  7  9  1  0  0  0  0
 14  8  1  0  0  0  0
 18  9  2  0  0  0  0
 15 10  2  0  0  0  0
 10 13  1  0  0  0  0
 19 11  1  0  0  0  0
 13 11  2  0  0  0  0
 13 12  1  0  0  0  0
 14 20  2  0  0  0  0
 15 21  1  0  0  0  0
 18 16  1  0  0  0  0
 19 16  1  0  0  0  0
 17 20  1  0  0  0  0
 17 21  1  0  0  0  0
 20 18  1  0  0  0  0
 21 19  2  0  0  0  0
M  END
>  <InstanceId>
4RFR_RHN_B_301

>  <ChemCompId>
RHN

>  <PdbId>
4RFR

>  <ChainId>
B

>  <ResidueNumber>
301

>  <InsertionCode>


>  <Model>
1

>  <AltIds>


>  <MissingHeavyAtoms>
0

>  <ObservedFormula>
C15 O6

>  <Name>
4,5-dihydroxy-9,10-dioxo-9,10-dihydroanthracene-2-carboxylic acid

>  <SystematicName>
4,5-dihydroxy-9,10-dioxo-anthracene-2-carboxylic acid

>  <Synonyms>
Rhein; Rhubarb Yellow

>  <Type>
NON-POLYMER

>  <Formula>
C15 H8 O6

>  <MolecularWeight>
284.22

>  <ModifiedDate>
2020-06-17

>  <Parent>


>  <OneLetterCode>


>  <SubcomponentList>


>  <AmbiguousFlag>
N

>  <InChI>
InChI=1S/C15H8O6/c16-9-3-1-2-7-11(9)14(19)12-8(13(7)18)4-6(15(20)21)5-10(12)17/h1-5,16-17H,(H,20,21)

>  <InChIKey>
FCDLCPWAQCPTKC-UHFFFAOYSA-N

>  <SMILES>
c1cc2c(c(c1)O)C(=O)c3c(cc(cc3O)C(=O)O)C2=O

$$$$
