3NEX_G24_A_126
  RCSB PDB08012019543D
Coordinates from PDB:3NEX:A:126 Model:1 without hydrogens
 28 30  0  0  0  0            999 V2000
    0.0120    0.0710   10.9670   C 0  0  0  0  0  0  0  0  0  0  0  0
    0.7200    0.9110   11.8010   C 0  0  0  0  0  0  0  0  0  0  0  0
    0.9490    2.2340   11.4420   C 0  0  0  0  0  0  0  0  0  0  0  0
    0.4500    2.7640   10.2670   C 0  0  0  0  0  0  0  0  0  0  0  0
   -0.2740    1.9280    9.4300   C 0  0  0  0  0  0  0  0  0  0  0  0
   -0.4910    0.5960    9.7830   C 0  0  0  0  0  0  0  0  0  0  0  0
   -1.2860   -0.3190    8.8450   C 0  0  0  0  0  0  0  0  0  0  0  0
   -0.4130   -0.6430    7.6340   C 0  0  0  0  0  0  0  0  0  0  0  0
   -0.6710    0.0230    6.4590   C 0  0  0  0  0  0  0  0  0  0  0  0
    0.6280   -1.5570    7.6830   C 0  0  0  0  0  0  0  0  0  0  0  0
    0.8380   -2.1820    8.8660   O 0  0  0  0  0  0  0  0  0  0  0  0
    1.4030   -1.8000    6.5430   C 0  0  0  0  0  0  0  0  0  0  0  0
    1.1170   -1.1240    5.3450   C 0  0  0  0  0  0  0  0  0  0  0  0
    0.0720   -0.1970    5.3250   C 0  0  0  0  0  0  0  0  0  0  0  0
   -0.3690    0.6270    4.1260   C 0  0  0  0  0  0  0  0  0  0  0  0
   -0.0130    0.0930    2.7330   C 0  0  0  0  0  0  0  0  0  0  0  0
   -0.7840   -0.8530    2.0640   C 0  0  0  0  0  0  0  0  0  0  0  0
   -2.0230   -1.4490    2.7310   C 0  0  0  0  0  0  0  0  0  0  0  0
   -0.4410   -1.2920    0.7890   C 0  0  0  0  0  0  0  0  0  0  0  0
    1.0890    0.6100    2.0630   C 0  0  0  0  0  0  0  0  0  0  0  0
    1.9510    1.6620    2.7530   C 0  0  0  0  0  0  0  0  0  0  0  0
    1.4470    0.1900    0.7870   C 0  0  0  0  0  0  0  0  0  0  0  0
    0.6780   -0.7710    0.1470   C 0  0  0  0  0  0  0  0  0  0  0  0
    1.0310   -1.2010   -1.1010   O 0  0  0  0  0  0  0  0  0  0  0  0
    0.0850   -2.1740   -1.6200   C 0  0  0  0  0  0  0  0  0  0  0  0
   -1.2790   -1.6070   -2.0590   C 0  0  0  0  0  0  0  0  0  0  0  0
   -1.3580   -0.4010   -2.3860   O 0  0  0  0  0  0  0  0  0  0  0  0
   -2.2690   -2.3710   -2.0330   O 0  0  0  0  0  0  0  0  0  0  0  0
  1  2  2  0  0  0  0
  1  6  1  0  0  0  0
  2  3  1  0  0  0  0
  3  4  2  0  0  0  0
  4  5  1  0  0  0  0
  5  6  2  0  0  0  0
  6  7  1  0  0  0  0
  7  8  1  0  0  0  0
  8  9  2  0  0  0  0
  8 10  1  0  0  0  0
  9 14  1  0  0  0  0
 10 11  1  0  0  0  0
 10 12  2  0  0  0  0
 12 13  1  0  0  0  0
 13 14  2  0  0  0  0
 14 15  1  0  0  0  0
 15 16  1  0  0  0  0
 16 17  2  0  0  0  0
 16 20  1  0  0  0  0
 17 18  1  0  0  0  0
 17 19  1  0  0  0  0
 19 23  2  0  0  0  0
 20 21  1  0  0  0  0
 20 22  2  0  0  0  0
 22 23  1  0  0  0  0
 23 24  1  0  0  0  0
 24 25  1  0  0  0  0
 25 26  1  0  0  0  0
 26 27  1  0  0  0  0
 26 28  2  0  0  0  0
M  END
>  <InstanceId>
3NEX_G24_A_126

>  <ChemCompId>
G24

>  <PdbId>
3NEX

>  <ChainId>
A

>  <ResidueNumber>
126

>  <InsertionCode>


>  <Model>
1

>  <AltIds>


>  <MissingHeavyAtoms>
0

>  <ObservedFormula>
C24 O4

>  <Name>
[4-(3-BENZYL-4-HYDROXYBENZYL)-3,5-DIMETHYLPHENOXY]ACETIC ACID

>  <SystematicName>
2-[4-[[4-hydroxy-3-(phenylmethyl)phenyl]methyl]-3,5-dimethyl-phenoxy]ethanoic acid

>  <Synonyms>
GC-24

>  <Type>
NON-POLYMER

>  <Formula>
C24 H24 O4

>  <MolecularWeight>
376.445

>  <ModifiedDate>
2020-06-17

>  <Parent>


>  <OneLetterCode>


>  <SubcomponentList>


>  <AmbiguousFlag>
N

>  <InChI>
InChI=1S/C24H24O4/c1-16-10-21(28-15-24(26)27)11-17(2)22(16)14-19-8-9-23(25)20(13-19)12-18-6-4-3-5-7-18/h3-11,13,25H,12,14-15H2,1-2H3,(H,26,27)

>  <InChIKey>
JYHIGYLGYNCMGI-UHFFFAOYSA-N

>  <SMILES>
Cc1cc(cc(c1Cc2ccc(c(c2)Cc3ccccc3)O)C)OCC(=O)O

$$$$
