4R3W_A2P_A_406
  RCSB PDB08012023073D
Coordinates from PDB:4R3W:A:406 Model:1 without hydrogens
 27 29  0  0  0  0            999 V2000
  -16.0800   -5.3520    5.4070   P 0  0  0  0  0  0  0  0  0  0  0  0
  -17.3360   -5.3180    6.2170   O 0  0  0  0  0  0  0  0  0  0  0  0
  -16.1300   -4.7810    4.0310   O 0  0  0  0  0  0  0  0  0  0  0  0
  -15.3940   -6.6730    5.4600   O 0  0  0  0  0  0  0  0  0  0  0  0
   -9.2750   -5.4380    3.3880   P 0  0  0  0  0  0  0  0  0  0  0  0
   -8.1920   -6.3220    3.9390   O 0  0  0  0  0  0  0  0  0  0  0  0
  -10.4070   -6.1680    2.7210   O 0  0  0  0  0  0  0  0  0  0  0  0
   -8.8360   -4.2770    2.5570   O 0  0  0  0  0  0  0  0  0  0  0  0
   -9.9870   -4.8090    4.6660   O 0  0  0  0  0  0  0  0  0  0  0  0
  -10.9190   -3.7420    4.5390   C 0  0  0  0  0  0  0  0  0  0  0  0
  -11.5840   -3.5230    5.8920   C 0  0  0  0  0  0  0  0  0  0  0  0
  -12.2230   -2.2560    5.9010   O 0  0  0  0  0  0  0  0  0  0  0  0
  -12.6820   -4.5400    6.1400   C 0  0  0  0  0  0  0  0  0  0  0  0
  -12.7720   -4.8530    7.5280   O 0  0  0  0  0  0  0  0  0  0  0  0
  -13.9220   -3.8140    5.6950   C 0  0  0  0  0  0  0  0  0  0  0  0
  -15.1270   -4.3580    6.2370   O 0  0  0  0  0  0  0  0  0  0  0  0
  -13.5930   -2.4240    6.2000   C 0  0  0  0  0  0  0  0  0  0  0  0
  -14.4560   -1.3990    5.5740   N 0  0  0  0  0  0  0  0  0  0  0  0
  -14.5900   -1.1200    4.2660   C 0  0  0  0  0  0  0  0  0  0  0  0
  -15.4800   -0.1200    4.0870   N 0  0  0  0  0  0  0  0  0  0  0  0
  -15.9400    0.2410    5.2970   C 0  0  0  0  0  0  0  0  0  0  0  0
  -16.9070    1.2210    5.8140   C 0  0  0  0  0  0  0  0  0  0  0  0
  -17.5840    2.0470    4.9740   N 0  0  0  0  0  0  0  0  0  0  0  0
  -17.0710    1.2760    7.1370   N 0  0  0  0  0  0  0  0  0  0  0  0
  -16.3980    0.4750    7.9820   C 0  0  0  0  0  0  0  0  0  0  0  0
  -15.5200   -0.4510    7.5840   N 0  0  0  0  0  0  0  0  0  0  0  0
  -15.2530   -0.6000    6.2740   C 0  0  0  0  0  0  0  0  0  0  0  0
  1  2  2  0  0  0  0
  1  3  1  0  0  0  0
  1  4  1  0  0  0  0
  1 16  1  0  0  0  0
  5  6  2  0  0  0  0
  5  7  1  0  0  0  0
  5  8  1  0  0  0  0
  5  9  1  0  0  0  0
  9 10  1  0  0  0  0
 10 11  1  0  0  0  0
 11 12  1  0  0  0  0
 11 13  1  0  0  0  0
 12 17  1  0  0  0  0
 13 14  1  0  0  0  0
 13 15  1  0  0  0  0
 15 16  1  0  0  0  0
 15 17  1  0  0  0  0
 17 18  1  0  0  0  0
 18 19  1  0  0  0  0
 18 27  1  0  0  0  0
 19 20  2  0  0  0  0
 20 21  1  0  0  0  0
 21 22  1  0  0  0  0
 21 27  2  0  0  0  0
 22 23  1  0  0  0  0
 22 24  2  0  0  0  0
 24 25  1  0  0  0  0
 25 26  2  0  0  0  0
 26 27  1  0  0  0  0
M  END
>  <InstanceId>
4R3W_A2P_A_406

>  <ChemCompId>
A2P

>  <PdbId>
4R3W

>  <ChainId>
A

>  <ResidueNumber>
406

>  <InsertionCode>


>  <Model>
1

>  <AltIds>


>  <MissingHeavyAtoms>
0

>  <ObservedFormula>
C10 N5 O10 P2

>  <Name>
ADENOSINE-2'-5'-DIPHOSPHATE

>  <SystematicName>
[(2R,3R,4R,5R)-2-(6-aminopurin-9-yl)-4-hydroxy-5-(phosphonooxymethyl)oxolan-3-yl] dihydrogen phosphate

>  <Synonyms>


>  <Type>
NON-POLYMER

>  <Formula>
C10 H15 N5 O10 P2

>  <MolecularWeight>
427.201

>  <ModifiedDate>
2011-06-04

>  <Parent>


>  <OneLetterCode>


>  <SubcomponentList>


>  <AmbiguousFlag>
N

>  <InChI>
InChI=1S/C10H15N5O10P2/c11-8-5-9(13-2-12-8)15(3-14-5)10-7(25-27(20,21)22)6(16)4(24-10)1-23-26(17,18)19/h2-4,6-7,10,16H,1H2,(H2,11,12,13)(H2,17,18,19)(H2,20,21,22)/t4-,6-,7-,10-/m1/s1

>  <InChIKey>
AEOBEOJCBAYXBA-KQYNXXCUSA-N

>  <SMILES>
c1nc(c2c(n1)n(cn2)[C@H]3[C@@H]([C@@H]([C@H](O3)COP(=O)(O)O)O)OP(=O)(O)O)N

$$$$
