5O07_1VQ_A_302
  RCSB PDB08022002373D
Coordinates from PDB:5O07:A:302 Model:1 without hydrogens
 16 16  0  0  0  0            999 V2000
   -5.6990    1.0030   16.5260   S 0  0  0  0  0  0  0  0  0  0  0  0
   -4.9670    1.3680   17.6980   O 0  0  0  0  0  0  0  0  0  0  0  0
   -7.1270    1.1020   16.5310   O 0  0  0  0  0  0  0  0  0  0  0  0
   -5.1920    1.9710   15.3980   O 0  0  0  0  0  0  0  0  0  0  0  0
   -5.2840   -0.4870   16.1330   N 0  0  0  0  0  0  0  0  0  0  0  0
   -3.8970    1.7410   14.7680   C 0  0  0  0  0  0  0  0  0  0  0  0
   -3.9110    2.4600   13.4620   C 0  0  0  0  0  0  0  0  0  0  0  0
   -3.4860    6.0360   13.9320   N 0  0  0  0  0  0  0  0  0  0  0  0
   -6.4640    4.2320   13.0820   N 0  3  0  0  0  0  0  0  0  0  0  0
   -5.1850    4.6920   13.4600   C 0  0  0  0  0  0  0  0  0  0  0  0
   -4.8130    5.9910   13.6840   C 0  0  0  0  0  0  0  0  0  0  0  0
   -3.0460    4.7940   13.8650   C 0  0  0  0  0  0  0  0  0  0  0  0
   -1.6520    4.4080   14.1320   C 0  0  0  0  0  0  0  0  0  0  0  0
   -4.0490    3.9170   13.5870   N 0  0  0  0  0  0  0  0  0  0  0  0
   -7.3750    5.0610   13.0420   O 0  5  0  0  0  0  0  0  0  0  0  0
   -6.6100    3.0680   12.7180   O 0  0  0  0  0  0  0  0  0  0  0  0
 16  9  2  0  0  0  0
 15  9  1  0  0  0  0
  9 10  1  0  0  0  0
 10 14  1  0  0  0  0
 10 11  2  0  0  0  0
  7 14  1  0  0  0  0
  7  6  1  0  0  0  0
 14 12  1  0  0  0  0
 11  8  1  0  0  0  0
 12  8  2  0  0  0  0
 12 13  1  0  0  0  0
  6  4  1  0  0  0  0
  4  1  1  0  0  0  0
  5  1  1  0  0  0  0
  1  3  2  0  0  0  0
  1  2  2  0  0  0  0
M  CHG  2   9   1  15  -1
M  END
>  <InstanceId>
5O07_1VQ_A_302

>  <ChemCompId>
1VQ

>  <PdbId>
5O07

>  <ChainId>
A

>  <ResidueNumber>
302

>  <InsertionCode>


>  <Model>
1

>  <AltIds>


>  <MissingHeavyAtoms>
0

>  <ObservedFormula>
C6 N4 O5 S

>  <Name>
2-(2-methyl-5-nitro-1H-imidazol-1-yl)ethyl sulfamate

>  <SystematicName>
2-(2-methyl-5-nitro-imidazol-1-yl)ethyl sulfamate

>  <Synonyms>


>  <Type>
NON-POLYMER

>  <Formula>
C6 H10 N4 O5 S

>  <MolecularWeight>
250.232

>  <ModifiedDate>
2017-07-28

>  <Parent>


>  <OneLetterCode>


>  <SubcomponentList>


>  <AmbiguousFlag>
N

>  <InChI>
InChI=1S/C6H10N4O5S/c1-5-8-4-6(10(11)12)9(5)2-3-15-16(7,13)14/h4H,2-3H2,1H3,(H2,7,13,14)

>  <InChIKey>
PBAHHCUVLKOILA-UHFFFAOYSA-N

>  <SMILES>
Cc1ncc(n1CCOS(=O)(=O)N)[N+](=O)[O-]

$$$$
