2EWA_SB2_A_361
  RCSB PDB08012016563D
Coordinates from PDB:2EWA:A:361 Model:1 without hydrogens
 27 30  0  0  0  0            999 V2000
   -0.3300    9.2600   24.1280   O 0  0  0  0  0  0  0  0  0  0  0  0
   -1.4230   10.5410   21.8210   C 0  0  0  0  0  0  0  0  0  0  0  0
   -1.6730    9.4110   23.2440   S 0  0  0  0  0  0  0  0  0  0  0  0
   -2.4570    5.3800   22.9950   C 0  0  0  0  0  0  0  0  0  0  0  0
   -2.0380    6.6730   23.4850   C 0  0  0  0  0  0  0  0  0  0  0  0
   -2.2040    7.8440   22.6250   C 0  0  0  0  0  0  0  0  0  0  0  0
   -2.7880    7.7500   21.2820   C 0  0  0  0  0  0  0  0  0  0  0  0
   -3.2060    6.4460   20.8020   C 0  0  0  0  0  0  0  0  0  0  0  0
   -3.0530    5.2140   21.6420   C 0  0  0  0  0  0  0  0  0  0  0  0
   -3.6120   -2.3390   22.7720   N 0  0  0  0  0  0  0  0  0  0  0  0
   -4.0950   -1.3450   23.6270   C 0  0  0  0  0  0  0  0  0  0  0  0
   -4.1700    0.0440   23.1630   C 0  0  0  0  0  0  0  0  0  0  0  0
   -3.7210    0.3530   21.7690   C 0  0  0  0  0  0  0  0  0  0  0  0
   -3.2110   -0.7840   20.9120   C 0  0  0  0  0  0  0  0  0  0  0  0
   -3.1790   -2.1190   21.4670   C 0  0  0  0  0  0  0  0  0  0  0  0
   -3.2780    2.7930   21.9870   N 0  0  0  0  0  0  0  0  0  0  0  0
   -3.4490    3.9120   21.1770   C 0  0  0  0  0  0  0  0  0  0  0  0
   -4.0120    3.6940   19.9220   N 0  0  0  0  0  0  0  0  0  0  0  0
   -4.2270    2.2950   19.9070   C 0  0  0  0  0  0  0  0  0  0  0  0
   -3.7570    1.7240   21.2200   C 0  0  0  0  0  0  0  0  0  0  0  0
   -4.1230    1.7920   17.4690   C 0  0  0  0  0  0  0  0  0  0  0  0
   -4.6410    1.1720   16.2760   C 0  0  0  0  0  0  0  0  0  0  0  0
   -5.8550    0.3820   16.3300   C 0  0  0  0  0  0  0  0  0  0  0  0
   -6.5790    0.2000   17.6010   C 0  0  0  0  0  0  0  0  0  0  0  0
   -6.0610    0.8240   18.8110   C 0  0  0  0  0  0  0  0  0  0  0  0
   -4.8050    1.6420   18.7620   C 0  0  0  0  0  0  0  0  0  0  0  0
   -6.2980   -0.1800   15.1720   F 0  0  0  0  0  0  0  0  0  0  0  0
  1  3  2  0  0  0  0
  2  3  1  0  0  0  0
  3  6  1  0  0  0  0
  4  5  2  0  0  0  0
  4  9  1  0  0  0  0
  5  6  1  0  0  0  0
  6  7  2  0  0  0  0
  7  8  1  0  0  0  0
  8  9  2  0  0  0  0
  9 17  1  0  0  0  0
 10 11  2  0  0  0  0
 10 15  1  0  0  0  0
 11 12  1  0  0  0  0
 12 13  2  0  0  0  0
 13 14  1  0  0  0  0
 13 20  1  0  0  0  0
 14 15  2  0  0  0  0
 16 17  1  0  0  0  0
 16 20  1  0  0  0  0
 17 18  2  0  0  0  0
 18 19  1  0  0  0  0
 19 20  2  0  0  0  0
 19 26  1  0  0  0  0
 21 22  2  0  0  0  0
 21 26  1  0  0  0  0
 22 23  1  0  0  0  0
 23 24  2  0  0  0  0
 23 27  1  0  0  0  0
 24 25  1  0  0  0  0
 25 26  2  0  0  0  0
M  END
>  <InstanceId>
2EWA_SB2_A_361

>  <ChemCompId>
SB2

>  <PdbId>
2EWA

>  <ChainId>
A

>  <ResidueNumber>
361

>  <InsertionCode>


>  <Model>
1

>  <AltIds>


>  <MissingHeavyAtoms>
0

>  <ObservedFormula>
C21 N3 O S F

>  <Name>
4-[5-(4-FLUORO-PHENYL)-2-(4-METHANESULFINYL-PHENYL)-3H-IMIDAZOL-4-YL]-PYRIDINE

>  <SystematicName>
4-[5-(4-fluorophenyl)-2-[4-[(S)-methylsulfinyl]phenyl]-3H-imidazol-4-yl]pyridine

>  <Synonyms>


>  <Type>
NON-POLYMER

>  <Formula>
C21 H16 F N3 O S

>  <MolecularWeight>
377.435

>  <ModifiedDate>
2012-01-05

>  <Parent>


>  <OneLetterCode>


>  <SubcomponentList>


>  <AmbiguousFlag>
N

>  <InChI>
InChI=1S/C21H16FN3OS/c1-27(26)18-8-4-16(5-9-18)21-24-19(14-2-6-17(22)7-3-14)20(25-21)15-10-12-23-13-11-15/h2-13H,1H3,(H,24,25)/t27-/m0/s1

>  <InChIKey>
CDMGBJANTYXAIV-MHZLTWQESA-N

>  <SMILES>
C[S@](=O)c1ccc(cc1)c2[nH]c(c(n2)c3ccc(cc3)F)c4ccncc4

$$$$
