6D5H_FV7_B_2001
  RCSB PDB08022004203D
Coordinates from PDB:6D5H:B:2001 Model:1 without hydrogens
 33 37  0  0  0  0            999 V2000
   36.4600   29.4790   23.1980   N 0  0  0  0  0  0  0  0  0  0  0  0
   36.8480   26.7740   18.9630   N 0  0  0  0  0  0  0  0  0  0  0  0
   32.9860   29.0480   22.1100   C 0  0  0  0  0  0  0  0  0  0  0  0
   35.5380   28.9860   22.3390   C 0  0  0  0  0  0  0  0  0  0  0  0
   35.7290   29.9830   24.2930   C 0  0  0  0  0  0  0  0  0  0  0  0
   36.1720   30.6370   25.4570   C 0  0  0  0  0  0  0  0  0  0  0  0
   35.2050   30.9800   26.3900   C 0  0  0  0  0  0  0  0  0  0  0  0
   33.3870   30.1010   25.0060   C 0  0  0  0  0  0  0  0  0  0  0  0
   38.4180   30.3080   26.4560   C 0  0  0  0  0  0  0  0  0  0  0  0
   40.3130   31.6270   25.7270   C 0  0  0  0  0  0  0  0  0  0  0  0
   38.1540   32.0020   24.8080   C 0  0  0  0  0  0  0  0  0  0  0  0
   37.3010   28.1630   19.1410   C 0  0  0  0  0  0  0  0  0  0  0  0
   37.2760   28.4980   20.6370   C 0  0  0  0  0  0  0  0  0  0  0  0
   33.4500   31.5070   21.5230   C 0  0  0  0  0  0  0  0  0  0  0  0
   33.9300   33.9280   21.0840   C 0  0  0  0  0  0  0  0  0  0  0  0
   32.1020   33.6760   18.9820   F 0  0  0  0  0  0  0  0  0  0  0  0
   32.3070   32.6000   19.7290   C 0  0  0  0  0  0  0  0  0  0  0  0
   31.6120   31.4090   19.4280   C 0  0  0  0  0  0  0  0  0  0  0  0
   30.6010   31.4450   18.3440   C 0  0  0  0  0  0  0  0  0  0  0  0
   33.2150   32.6610   20.7700   C 0  0  0  0  0  0  0  0  0  0  0  0
   32.7810   30.3050   21.2420   C 0  0  0  0  0  0  0  0  0  0  0  0
   31.8690   30.2610   20.1820   C 0  0  0  0  0  0  0  0  0  0  0  0
   34.2460   29.1660   22.8070   N 0  0  0  0  0  0  0  0  0  0  0  0
   34.3590   29.7590   24.0780   C 0  0  0  0  0  0  0  0  0  0  0  0
   33.8540   30.6860   26.1470   C 0  0  0  0  0  0  0  0  0  0  0  0
   32.6670   31.0260   27.3870  Cl 0  0  0  0  0  0  0  0  0  0  0  0
   37.5810   30.9930   25.5790   C 0  0  0  0  0  0  0  0  0  0  0  0
   37.2340   32.9740   23.7220  Cl 0  0  0  0  0  0  0  0  0  0  0  0
   39.5000   32.3300   24.8600   C 0  0  0  0  0  0  0  0  0  0  0  0
   39.7680   30.6280   26.5220   C 0  0  0  0  0  0  0  0  0  0  0  0
   35.9120   28.3580   21.1360   N 0  0  0  0  0  0  0  0  0  0  0  0
   35.5110   26.5010   19.5400   C 0  0  0  0  0  0  0  0  0  0  0  0
   35.5250   26.9230   21.0310   C 0  0  0  0  0  0  0  0  0  0  0  0
 19 18  1  0  0  0  0
  2 12  1  0  0  0  0
  2 32  1  0  0  0  0
 16 17  1  0  0  0  0
 12 13  1  0  0  0  0
 18 17  2  0  0  0  0
 18 22  1  0  0  0  0
 32 33  1  0  0  0  0
 17 20  1  0  0  0  0
 22 21  2  0  0  0  0
 13 31  1  0  0  0  0
 20 15  1  0  0  0  0
 20 14  2  0  0  0  0
 33 31  1  0  0  0  0
 31  4  1  0  0  0  0
 21 14  1  0  0  0  0
 21  3  1  0  0  0  0
  3 23  1  0  0  0  0
  4 23  1  0  0  0  0
  4  1  2  0  0  0  0
 23 24  1  0  0  0  0
  1  5  1  0  0  0  0
 28 11  1  0  0  0  0
 24  5  2  0  0  0  0
 24  8  1  0  0  0  0
  5  6  1  0  0  0  0
 11 29  2  0  0  0  0
 11 27  1  0  0  0  0
 29 10  1  0  0  0  0
  8 25  2  0  0  0  0
  6 27  1  0  0  0  0
  6  7  2  0  0  0  0
 27  9  2  0  0  0  0
 10 30  2  0  0  0  0
 25  7  1  0  0  0  0
 25 26  1  0  0  0  0
  9 30  1  0  0  0  0
M  END
>  <InstanceId>
6D5H_FV7_B_2001

>  <ChemCompId>
FV7

>  <PdbId>
6D5H

>  <ChainId>
B

>  <ResidueNumber>
2001

>  <InsertionCode>


>  <Model>
1

>  <AltIds>


>  <MissingHeavyAtoms>
0

>  <ObservedFormula>
C26 N4 F Cl2

>  <Name>
6-chloro-4-(2-chlorophenyl)-1-[(4-fluoro-3,5-dimethylphenyl)methyl]-2-(piperazin-1-yl)-1H-benzimidazole

>  <SystematicName>
6-chloranyl-4-(2-chlorophenyl)-1-[(4-fluoranyl-3,5-dimethyl-phenyl)methyl]-2-piperazin-1-yl-benzimidazole

>  <Synonyms>


>  <Type>
NON-POLYMER

>  <Formula>
C26 H25 Cl2 F N4

>  <MolecularWeight>
483.408

>  <ModifiedDate>
2018-09-14

>  <Parent>


>  <OneLetterCode>


>  <SubcomponentList>


>  <AmbiguousFlag>
N

>  <InChI>
InChI=1S/C26H25Cl2FN4/c1-16-11-18(12-17(2)24(16)29)15-33-23-14-19(27)13-21(20-5-3-4-6-22(20)28)25(23)31-26(33)32-9-7-30-8-10-32/h3-6,11-14,30H,7-10,15H2,1-2H3

>  <InChIKey>
YIYWIIQFTVKZTC-UHFFFAOYSA-N

>  <SMILES>
Cc1cc(cc(c1F)C)Cn2c3cc(cc(c3nc2N4CCNCC4)c5ccccc5Cl)Cl

$$$$
