3KDM_TES_H_226
  RCSB PDB08012019343D
Coordinates from PDB:3KDM:H:226 Model:1 without hydrogens
 21 24  0  0  0  0            999 V2000
   -2.3190   -0.7560   20.8670   C 0  0  0  0  0  0  0  0  0  0  0  0
   -3.5090   -1.5580   20.3430   C 0  0  0  0  0  0  0  0  0  0  0  0
   -4.0150   -1.0440   19.0150   C 0  0  0  0  0  0  0  0  0  0  0  0
   -5.1770   -1.2470   18.6760   O 0  0  0  0  0  0  0  0  0  0  0  0
   -3.0820   -0.3000   18.1300   C 0  0  0  0  0  0  0  0  0  0  0  0
   -1.8460    0.0410   18.5040   C 0  0  0  0  0  0  0  0  0  0  0  0
   -1.0220    0.8260   17.5120   C 0  0  0  0  0  0  0  0  0  0  0  0
   -0.0510    1.8220   18.1370   C 0  0  0  0  0  0  0  0  0  0  0  0
    0.6210    1.3010   19.4000   C 0  0  0  0  0  0  0  0  0  0  0  0
   -0.4330    0.7950   20.3830   C 0  0  0  0  0  0  0  0  0  0  0  0
   -1.2620   -0.3770   19.8300   C 0  0  0  0  0  0  0  0  0  0  0  0
    0.1210    0.5260   21.7990   C 0  0  0  0  0  0  0  0  0  0  0  0
    0.8720    1.7450   22.3820   C 0  0  0  0  0  0  0  0  0  0  0  0
    1.9910    2.1080   21.4220   C 0  0  0  0  0  0  0  0  0  0  0  0
    1.4230    2.4250   20.0590   C 0  0  0  0  0  0  0  0  0  0  0  0
    2.6250    2.9640   19.2960   C 0  0  0  0  0  0  0  0  0  0  0  0
    3.4790    3.6420   20.3730   C 0  0  0  0  0  0  0  0  0  0  0  0
    2.7260    3.4240   21.6900   C 0  0  0  0  0  0  0  0  0  0  0  0
    3.5840    3.3960   22.8450   O 0  0  0  0  0  0  0  0  0  0  0  0
    3.0190    0.9660   21.3550   C 0  0  0  0  0  0  0  0  0  0  0  0
   -0.3810   -1.6000   19.5890   C 0  0  0  0  0  0  0  0  0  0  0  0
  1  2  1  0  0  0  0
  1 11  1  0  0  0  0
  2  3  1  0  0  0  0
  3  4  2  0  0  0  0
  3  5  1  0  0  0  0
  5  6  2  0  0  0  0
  6  7  1  0  0  0  0
  6 11  1  0  0  0  0
  7  8  1  0  0  0  0
  8  9  1  0  0  0  0
  9 10  1  0  0  0  0
  9 15  1  0  0  0  0
 10 11  1  0  0  0  0
 10 12  1  0  0  0  0
 11 21  1  0  0  0  0
 12 13  1  0  0  0  0
 13 14  1  0  0  0  0
 14 15  1  0  0  0  0
 14 18  1  0  0  0  0
 14 20  1  0  0  0  0
 15 16  1  0  0  0  0
 16 17  1  0  0  0  0
 17 18  1  0  0  0  0
 18 19  1  0  0  0  0
M  END
>  <InstanceId>
3KDM_TES_H_226

>  <ChemCompId>
TES

>  <PdbId>
3KDM

>  <ChainId>
H

>  <ResidueNumber>
226

>  <InsertionCode>


>  <Model>
1

>  <AltIds>


>  <MissingHeavyAtoms>
0

>  <ObservedFormula>
C19 O2

>  <Name>
TESTOSTERONE

>  <SystematicName>
(8R,9S,10R,13S,14S,17S)-17-hydroxy-10,13-dimethyl-1,2,6,7,8,9,11,12,14,15,16,17-dodecahydrocyclopenta[a]phenanthren-3-one

>  <Synonyms>


>  <Type>
NON-POLYMER

>  <Formula>
C19 H28 O2

>  <MolecularWeight>
288.424

>  <ModifiedDate>
2011-06-04

>  <Parent>


>  <OneLetterCode>


>  <SubcomponentList>


>  <AmbiguousFlag>
N

>  <InChI>
InChI=1S/C19H28O2/c1-18-9-7-13(20)11-12(18)3-4-14-15-5-6-17(21)19(15,2)10-8-16(14)18/h11,14-17,21H,3-10H2,1-2H3/t14-,15-,16-,17-,18-,19-/m0/s1

>  <InChIKey>
MUMGGOZAMZWBJJ-DYKIIFRCSA-N

>  <SMILES>
C[C@]12CC[C@H]3[C@H]([C@@H]1CC[C@@H]2O)CCC4=CC(=O)CC[C@]34C

$$$$
