5VSF_9HG_A_3006
  RCSB PDB08022003243D
Coordinates from PDB:5VSF:A:3006 Model:1 without hydrogens
 29 32  0  0  0  0            999 V2000
   20.8890  -14.7460   -2.8700   C 0  0  0  0  0  0  0  0  0  0  0  0
   21.0650  -13.5080   -2.2470   C 0  0  0  0  0  0  0  0  0  0  0  0
   21.8360  -12.5300   -2.8950   C 0  0  0  0  0  0  0  0  0  0  0  0
   24.2190  -17.3260   -7.1400   C 0  0  0  0  0  0  0  0  0  0  0  0
   22.7830  -15.5500   -7.9700   C 0  0  0  0  0  0  0  0  0  0  0  0
   22.3920  -12.8120   -4.0900   N 0  0  0  0  0  0  0  0  0  0  0  0
   23.3940  -16.8920   -8.3470   C 0  0  0  0  0  0  0  0  0  0  0  0
   21.4570  -14.9690   -4.0760   N 0  0  0  0  0  0  0  0  0  0  0  0
   23.5710  -13.2750   -6.5980   C 0  0  0  0  0  0  0  0  0  0  0  0
   22.2060  -14.0130   -4.6700   C 0  0  0  0  0  0  0  0  0  0  0  0
   18.6160  -17.7400   -1.0250   C 0  0  0  0  0  0  0  0  0  0  0  0
   19.5640  -12.9970    1.6410   C 0  0  0  0  0  0  0  0  0  0  0  0
   23.9790   -6.2380   -3.7240   C 0  0  0  0  0  0  0  0  0  0  0  0
   20.1310  -15.7540   -2.2660   C 0  0  0  0  0  0  0  0  0  0  0  0
   20.4690  -13.2700   -1.0100   C 0  0  0  0  0  0  0  0  0  0  0  0
   23.7400  -16.4930   -5.9540   C 0  0  0  0  0  0  0  0  0  0  0  0
   22.5950  -15.6220   -6.4640   C 0  0  0  0  0  0  0  0  0  0  0  0
   23.7860   -9.6190   -2.0990   C 0  0  0  0  0  0  0  0  0  0  0  0
   21.8630   -9.3130   -3.6040   C 0  0  0  0  0  0  0  0  0  0  0  0
   24.4340   -8.3860   -2.7310   C 0  0  0  0  0  0  0  0  0  0  0  0
   22.5820   -8.1110   -4.2100   C 0  0  0  0  0  0  0  0  0  0  0  0
   19.5410  -15.5090   -1.0290   C 0  0  0  0  0  0  0  0  0  0  0  0
   19.7160  -14.2800   -0.4080   C 0  0  0  0  0  0  0  0  0  0  0  0
   22.8700  -10.3270   -3.0960   C 0  0  0  0  0  0  0  0  0  0  0  0
   22.7890  -14.2890   -5.9020   N 0  0  0  0  0  0  0  0  0  0  0  0
   22.0540  -11.3030   -2.3610   N 0  0  0  0  0  0  0  0  0  0  0  0
   23.3830   -7.4600   -3.1640   N 0  0  0  0  0  0  0  0  0  0  0  0
   18.7820  -16.4630   -0.3980   O 0  0  0  0  0  0  0  0  0  0  0  0
   19.1260  -14.0790    0.8070   O 0  0  0  0  0  0  0  0  0  0  0  0
  7  5  1  0  0  0  0
  7  4  1  0  0  0  0
  5 17  1  0  0  0  0
  4 16  1  0  0  0  0
  9 25  1  0  0  0  0
 17 16  1  0  0  0  0
 17 25  1  0  0  0  0
 25 10  1  0  0  0  0
 10  6  2  0  0  0  0
 10  8  1  0  0  0  0
 21 19  1  0  0  0  0
 21 27  1  0  0  0  0
  6  3  1  0  0  0  0
  8  1  2  0  0  0  0
 13 27  1  0  0  0  0
 19 24  1  0  0  0  0
 27 20  1  0  0  0  0
 24 26  1  0  0  0  0
 24 18  1  0  0  0  0
  3 26  1  0  0  0  0
  3  2  2  0  0  0  0
  1 14  1  0  0  0  0
  1  2  1  0  0  0  0
 20 18  1  0  0  0  0
 14 22  2  0  0  0  0
  2 15  1  0  0  0  0
 22 23  1  0  0  0  0
 22 28  1  0  0  0  0
 11 28  1  0  0  0  0
 15 23  2  0  0  0  0
 23 29  1  0  0  0  0
 29 12  1  0  0  0  0
M  END
>  <InstanceId>
5VSF_9HG_A_3006

>  <ChemCompId>
9HG

>  <PdbId>
5VSF

>  <ChainId>
A

>  <ResidueNumber>
3006

>  <InsertionCode>


>  <Model>
1

>  <AltIds>


>  <MissingHeavyAtoms>
0

>  <ObservedFormula>
C22 N5 O2

>  <Name>
N~2~-cyclopentyl-6,7-dimethoxy-N~2~-methyl-N~4~-(1-methylpiperidin-4-yl)quinazoline-2,4-diamine

>  <SystematicName>
~{N}2-cyclopentyl-6,7-dimethoxy-~{N}2-methyl-~{N}4-(1-methylpiperidin-4-yl)quinazoline-2,4-diamine

>  <Synonyms>


>  <Type>
NON-POLYMER

>  <Formula>
C22 H33 N5 O2

>  <MolecularWeight>
399.53

>  <ModifiedDate>
2017-07-07

>  <Parent>


>  <OneLetterCode>


>  <SubcomponentList>


>  <AmbiguousFlag>
N

>  <InChI>
InChI=1S/C22H33N5O2/c1-26-11-9-15(10-12-26)23-21-17-13-19(28-3)20(29-4)14-18(17)24-22(25-21)27(2)16-7-5-6-8-16/h13-16H,5-12H2,1-4H3,(H,23,24,25)

>  <InChIKey>
YBQHFHPOKHPBRB-UHFFFAOYSA-N

>  <SMILES>
CN1CCC(CC1)Nc2c3cc(c(cc3nc(n2)N(C)C4CCCC4)OC)OC

$$$$
