1MSM_JE2_B_1001
  RCSB PDB08012015293D
Coordinates from PDB:1MSM:B:1001 Model:1 without hydrogens
 41 44  0  0  0  0            999 V2000
   11.0870   17.6810   19.1870   C 0  0  0  0  0  0  0  0  0  0  0  0
   11.1600   18.3330   17.9470   C 0  0  0  0  0  0  0  0  0  0  0  0
   12.2200   19.2280   17.6880   C 0  0  0  0  0  0  0  0  0  0  0  0
   13.2250   19.4840   18.6690   C 0  0  0  0  0  0  0  0  0  0  0  0
   13.1490   18.8170   19.9430   C 0  0  0  0  0  0  0  0  0  0  0  0
   12.0660   17.9180   20.1730   C 0  0  0  0  0  0  0  0  0  0  0  0
   14.1770   19.0330   21.0450   C 0  0  0  0  0  0  0  0  0  0  0  0
   14.3140   20.4260   18.3250   C 0  0  0  0  0  0  0  0  0  0  0  0
   11.9660   17.2650   21.3720   O 0  0  0  0  0  0  0  0  0  0  0  0
   15.5100   20.1290   18.4130   O 0  0  0  0  0  0  0  0  0  0  0  0
   16.3500   24.4590   18.5220   C 0  0  0  0  0  0  0  0  0  0  0  0
   13.9020   21.6620   17.8960   N 0  0  0  0  0  0  0  0  0  0  0  0
   16.3110   25.6330   18.1470   O 0  0  0  0  0  0  0  0  0  0  0  0
   15.0240   23.6720   18.6270   C 0  0  0  0  0  0  0  0  0  0  0  0
   13.9980   22.2990   15.0850   C 0  0  0  0  0  0  0  0  0  0  0  0
   14.2380   23.3430   16.1530   C 0  0  0  0  0  0  0  0  0  0  0  0
   13.4930   20.3240   13.1030   C 0  0  0  0  0  0  0  0  0  0  0  0
   14.8130   22.7050   17.4490   C 0  0  0  0  0  0  0  0  0  0  0  0
   13.9550   24.5840   18.6560   O 0  0  0  0  0  0  0  0  0  0  0  0
   15.0720   21.7190   14.3640   C 0  0  0  0  0  0  0  0  0  0  0  0
   12.6680   21.8800   14.8060   C 0  0  0  0  0  0  0  0  0  0  0  0
   14.8240   20.7370   13.3770   C 0  0  0  0  0  0  0  0  0  0  0  0
   12.4140   20.8960   13.8190   C 0  0  0  0  0  0  0  0  0  0  0  0
   19.4050   24.2990   17.4800   C 0  0  0  0  0  0  0  0  0  0  0  0
   17.5050   23.8090   18.8830   N 0  0  0  0  0  0  0  0  0  0  0  0
   19.1540   23.2590   16.8780   O 0  0  0  0  0  0  0  0  0  0  0  0
   18.7820   24.5770   18.8680   C 0  0  0  0  0  0  0  0  0  0  0  0
   19.6690   24.1440   20.0950   C 0  0  0  0  0  0  0  0  0  0  0  0
   17.4790   22.9050   20.0740   C 0  0  0  0  0  0  0  0  0  0  0  0
   19.3770   24.9630   21.3740   C 0  0  0  0  0  0  0  0  0  0  0  0
   21.1890   24.1680   19.7940   C 0  0  0  0  0  0  0  0  0  0  0  0
   19.1840   22.4500   20.3600   S 0  0  0  0  0  0  0  0  0  0  0  0
   20.2120   25.2820   17.0280   N 0  0  0  0  0  0  0  0  0  0  0  0
   20.8690   25.1620   15.7380   C 0  0  0  0  0  0  0  0  0  0  0  0
   20.6350   26.3790   14.8860   C 0  0  0  0  0  0  0  0  0  0  0  0
   19.3680   26.6570   14.2570   C 0  0  0  0  0  0  0  0  0  0  0  0
   19.2350   27.8290   13.4680   C 0  0  0  0  0  0  0  0  0  0  0  0
   20.3250   28.7150   13.3010   C 0  0  0  0  0  0  0  0  0  0  0  0
   21.5650   28.4450   13.9180   C 0  0  0  0  0  0  0  0  0  0  0  0
   21.7170   27.2840   14.7060   C 0  0  0  0  0  0  0  0  0  0  0  0
   18.1610   25.7500   14.3960   C 0  0  0  0  0  0  0  0  0  0  0  0
  6  9  1  0  0  0  0
  6  1  2  0  0  0  0
  6  5  1  0  0  0  0
  1  2  1  0  0  0  0
  2  3  2  0  0  0  0
  3  4  1  0  0  0  0
  4  5  2  0  0  0  0
  4  8  1  0  0  0  0
  5  7  1  0  0  0  0
  8 10  2  0  0  0  0
  8 12  1  0  0  0  0
 12 18  1  0  0  0  0
 18 16  1  0  0  0  0
 18 14  1  0  0  0  0
 16 15  1  0  0  0  0
 15 20  2  0  0  0  0
 15 21  1  0  0  0  0
 20 22  1  0  0  0  0
 22 17  2  0  0  0  0
 17 23  1  0  0  0  0
 23 21  2  0  0  0  0
 14 19  1  0  0  0  0
 14 11  1  0  0  0  0
 11 13  2  0  0  0  0
 11 25  1  0  0  0  0
 25 29  1  0  0  0  0
 25 27  1  0  0  0  0
 29 32  1  0  0  0  0
 32 28  1  0  0  0  0
 28 30  1  0  0  0  0
 28 31  1  0  0  0  0
 28 27  1  0  0  0  0
 27 24  1  0  0  0  0
 24 26  2  0  0  0  0
 24 33  1  0  0  0  0
 33 34  1  0  0  0  0
 34 35  1  0  0  0  0
 35 36  2  0  0  0  0
 35 40  1  0  0  0  0
 36 37  1  0  0  0  0
 36 41  1  0  0  0  0
 37 38  2  0  0  0  0
 38 39  1  0  0  0  0
 39 40  2  0  0  0  0
M  END
>  <InstanceId>
1MSM_JE2_B_1001

>  <ChemCompId>
JE2

>  <PdbId>
1MSM

>  <ChainId>
B

>  <ResidueNumber>
1001

>  <InsertionCode>


>  <Model>
1

>  <AltIds>


>  <MissingHeavyAtoms>
0

>  <ObservedFormula>
C32 N3 O5 S

>  <Name>
(4R)-3-{(2S,3S)-2-hydroxy-3-[(3-hydroxy-2-methylbenzoyl)amino]-4-phenylbutanoyl}-5,5-dimethyl-N-(2-methylbenzyl)-1,3-thiazolidine-4-carboxamide

>  <SystematicName>
(4R)-3-[(2S,3S)-2-hydroxy-3-[(3-hydroxy-2-methyl-phenyl)carbonylamino]-4-phenyl-butanoyl]-5,5-dimethyl-N-[(2-methylphenyl)methyl]-1,3-thiazolidine-4-carboxamide

>  <Synonyms>
JE-2147; AG1776; KNI-764

>  <Type>
peptide-like

>  <Formula>
C32 H37 N3 O5 S

>  <MolecularWeight>
575.718

>  <ModifiedDate>
2020-05-27

>  <Parent>


>  <OneLetterCode>


>  <SubcomponentList>
PF0 005 00B KNN

>  <AmbiguousFlag>
N

>  <InChI>
InChI=1S/C32H37N3O5S/c1-20-11-8-9-14-23(20)18-33-30(39)28-32(3,4)41-19-35(28)31(40)27(37)25(17-22-12-6-5-7-13-22)34-29(38)24-15-10-16-26(36)21(24)2/h5-16,25,27-28,36-37H,17-19H2,1-4H3,(H,33,39)(H,34,38)/t25-,27-,28+/m0/s1

>  <InChIKey>
CUFQBQOBLVLKRF-RZDMPUFOSA-N

>  <SMILES>
Cc1ccccc1CNC(=O)[C@@H]2C(SCN2C(=O)[C@H]([C@H](Cc3ccccc3)NC(=O)c4cccc(c4C)O)O)(C)C

$$$$
