1KV1_BMU_A_391
  RCSB PDB08012015203D
Coordinates from PDB:1KV1:A:391 Model:1 without hydrogens
 21 22  0  0  0  0            999 V2000
   33.3350   33.7310   14.7430   C 0  0  0  0  0  0  0  0  0  0  0  0
   32.6010   34.5460   15.3330   O 0  0  0  0  0  0  0  0  0  0  0  0
   34.5710   33.5060   15.1830   N 0  0  0  0  0  0  0  0  0  0  0  0
   35.1480   34.1290   16.2090   C 0  0  0  0  0  0  0  0  0  0  0  0
   36.4480   34.4790   16.0740   C 0  0  0  0  0  0  0  0  0  0  0  0
   37.1140   35.1040   17.1080   C 0  0  0  0  0  0  0  0  0  0  0  0
   36.4760   35.3630   18.2450   C 0  0  0  0  0  0  0  0  0  0  0  0
   37.3570   36.1330   19.5340  Cl 0  0  0  0  0  0  0  0  0  0  0  0
   35.1700   35.0230   18.4040   C 0  0  0  0  0  0  0  0  0  0  0  0
   34.4900   34.3920   17.3610   C 0  0  0  0  0  0  0  0  0  0  0  0
   32.9130   33.0390   13.6810   N 0  0  0  0  0  0  0  0  0  0  0  0
   31.7140   33.1640   13.1110   C 0  0  0  0  0  0  0  0  0  0  0  0
   31.0350   34.3170   12.8600   C 0  0  0  0  0  0  0  0  0  0  0  0
   29.8770   33.9530   12.1980   C 0  0  0  0  0  0  0  0  0  0  0  0
   29.8450   32.6300   12.0430   N 0  0  0  0  0  0  0  0  0  0  0  0
   31.0160   32.1480   12.6350   N 0  0  0  0  0  0  0  0  0  0  0  0
   31.4020   30.7330   12.7230   C 0  0  0  0  0  0  0  0  0  0  0  0
   28.3360   35.6290   12.9670   C 0  0  0  0  0  0  0  0  0  0  0  0
   27.7110   33.9850   11.1740   C 0  0  0  0  0  0  0  0  0  0  0  0
   29.4050   35.7600   10.6900   C 0  0  0  0  0  0  0  0  0  0  0  0
   28.8780   34.8070   11.7780   C 0  0  0  0  0  0  0  0  0  0  0  0
  1  2  2  0  0  0  0
  1  3  1  0  0  0  0
  1 11  1  0  0  0  0
  3  4  1  0  0  0  0
  4  5  2  0  0  0  0
  4 10  1  0  0  0  0
  5  6  1  0  0  0  0
  6  7  2  0  0  0  0
  7  8  1  0  0  0  0
  7  9  1  0  0  0  0
  9 10  2  0  0  0  0
 11 12  1  0  0  0  0
 12 13  2  0  0  0  0
 12 16  1  0  0  0  0
 13 14  1  0  0  0  0
 14 15  2  0  0  0  0
 14 21  1  0  0  0  0
 15 16  1  0  0  0  0
 16 17  1  0  0  0  0
 18 21  1  0  0  0  0
 19 21  1  0  0  0  0
 20 21  1  0  0  0  0
M  END
>  <InstanceId>
1KV1_BMU_A_391

>  <ChemCompId>
BMU

>  <PdbId>
1KV1

>  <ChainId>
A

>  <ResidueNumber>
391

>  <InsertionCode>


>  <Model>
1

>  <AltIds>


>  <MissingHeavyAtoms>
0

>  <ObservedFormula>
C15 N4 O Cl

>  <Name>
1-(5-TERT-BUTYL-2-METHYL-2H-PYRAZOL-3-YL)-3-(4-CHLORO-PHENYL)-UREA

>  <SystematicName>
3-(5-tert-butyl-2-methyl-pyrazol-3-yl)-1-(4-chlorophenyl)urea

>  <Synonyms>


>  <Type>
NON-POLYMER

>  <Formula>
C15 H19 Cl N4 O

>  <MolecularWeight>
306.791

>  <ModifiedDate>
2011-06-04

>  <Parent>


>  <OneLetterCode>


>  <SubcomponentList>


>  <AmbiguousFlag>
N

>  <InChI>
InChI=1S/C15H19ClN4O/c1-15(2,3)12-9-13(20(4)19-12)18-14(21)17-11-7-5-10(16)6-8-11/h5-9H,1-4H3,(H2,17,18,21)

>  <InChIKey>
FWIJKWMXNHRSRO-UHFFFAOYSA-N

>  <SMILES>
CC(C)(C)c1cc(n(n1)C)NC(=O)Nc2ccc(cc2)Cl

$$$$
