1FZQ_GDP_A_301
  RCSB PDB08012014573D
Coordinates from PDB:1FZQ:A:301 Model:1 without hydrogens
 28 30  0  0  0  0            999 V2000
   17.9210   10.4740   18.3760   P 0  0  0  0  0  0  0  0  0  0  0  0
   18.6420   11.2950   17.3510   O 0  0  0  0  0  0  0  0  0  0  0  0
   18.8180   10.1350   19.5810   O 0  0  0  0  0  0  0  0  0  0  0  0
   16.6650   10.9840   19.0750   O 0  0  0  0  0  0  0  0  0  0  0  0
   17.6190    8.9990   17.8500   O 0  0  0  0  0  0  0  0  0  0  0  0
   17.9250    8.2340   16.5890   P 0  0  0  0  0  0  0  0  0  0  0  0
   17.3680    8.8930   15.3360   O 0  0  0  0  0  0  0  0  0  0  0  0
   19.4410    8.1780   16.3700   O 0  0  0  0  0  0  0  0  0  0  0  0
   17.2910    6.8880   16.8030   O 0  0  0  0  0  0  0  0  0  0  0  0
   17.6560    6.0580   17.9000   C 0  0  0  0  0  0  0  0  0  0  0  0
   17.4270    4.5420   17.5430   C 0  0  0  0  0  0  0  0  0  0  0  0
   16.0510    4.3050   17.3330   O 0  0  0  0  0  0  0  0  0  0  0  0
   18.1770    4.0960   16.2600   C 0  0  0  0  0  0  0  0  0  0  0  0
   18.6110    2.7510   16.5880   O 0  0  0  0  0  0  0  0  0  0  0  0
   17.0730    4.1220   15.2110   C 0  0  0  0  0  0  0  0  0  0  0  0
   17.2330    3.2810   14.0550   O 0  0  0  0  0  0  0  0  0  0  0  0
   15.8380    3.7480   16.0310   C 0  0  0  0  0  0  0  0  0  0  0  0
   14.6160    4.3720   15.4960   N 0  0  0  0  0  0  0  0  0  0  0  0
   14.3320    5.7010   15.1900   C 0  0  0  0  0  0  0  0  0  0  0  0
   13.0850    5.8600   14.7230   N 0  0  0  0  0  0  0  0  0  0  0  0
   12.4980    4.5420   14.7200   C 0  0  0  0  0  0  0  0  0  0  0  0
   11.1540    3.9440   14.3360   C 0  0  0  0  0  0  0  0  0  0  0  0
   10.2440    4.6550   13.9110   O 0  0  0  0  0  0  0  0  0  0  0  0
   10.8920    2.6020   14.4520   N 0  0  0  0  0  0  0  0  0  0  0  0
   11.8420    1.6750   14.9270   C 0  0  0  0  0  0  0  0  0  0  0  0
   11.5660    0.3730   15.0290   N 0  0  0  0  0  0  0  0  0  0  0  0
   13.0880    2.2190   15.2850   N 0  0  0  0  0  0  0  0  0  0  0  0
   13.4210    3.6740   15.1770   C 0  0  0  0  0  0  0  0  0  0  0  0
  1  2  2  0  0  0  0
  1  3  1  0  0  0  0
  1  4  1  0  0  0  0
  1  5  1  0  0  0  0
  5  6  1  0  0  0  0
  6  7  2  0  0  0  0
  6  8  1  0  0  0  0
  6  9  1  0  0  0  0
  9 10  1  0  0  0  0
 10 11  1  0  0  0  0
 11 12  1  0  0  0  0
 11 13  1  0  0  0  0
 12 17  1  0  0  0  0
 13 14  1  0  0  0  0
 13 15  1  0  0  0  0
 15 16  1  0  0  0  0
 15 17  1  0  0  0  0
 17 18  1  0  0  0  0
 18 19  1  0  0  0  0
 18 28  1  0  0  0  0
 19 20  2  0  0  0  0
 20 21  1  0  0  0  0
 21 22  1  0  0  0  0
 21 28  2  0  0  0  0
 22 23  2  0  0  0  0
 22 24  1  0  0  0  0
 24 25  1  0  0  0  0
 25 26  1  0  0  0  0
 25 27  2  0  0  0  0
 27 28  1  0  0  0  0
M  END
>  <InstanceId>
1FZQ_GDP_A_301

>  <ChemCompId>
GDP

>  <PdbId>
1FZQ

>  <ChainId>
A

>  <ResidueNumber>
301

>  <InsertionCode>


>  <Model>
1

>  <AltIds>


>  <MissingHeavyAtoms>
0

>  <ObservedFormula>
C10 N5 O11 P2

>  <Name>
GUANOSINE-5'-DIPHOSPHATE

>  <SystematicName>
[(2R,3S,4R,5R)-5-(2-azanyl-6-oxidanylidene-1H-purin-9-yl)-3,4-bis(oxidanyl)oxolan-2-yl]methyl phosphono hydrogen phosphate

>  <Synonyms>


>  <Type>
RNA LINKING

>  <Formula>
C10 H15 N5 O11 P2

>  <MolecularWeight>
443.201

>  <ModifiedDate>
2014-05-12

>  <Parent>
G

>  <OneLetterCode>
G

>  <SubcomponentList>


>  <AmbiguousFlag>
N

>  <InChI>
InChI=1S/C10H15N5O11P2/c11-10-13-7-4(8(18)14-10)12-2-15(7)9-6(17)5(16)3(25-9)1-24-28(22,23)26-27(19,20)21/h2-3,5-6,9,16-17H,1H2,(H,22,23)(H2,19,20,21)(H3,11,13,14,18)/t3-,5-,6-,9-/m1/s1

>  <InChIKey>
QGWNDRXFNXRZMB-UUOKFMHZSA-N

>  <SMILES>
c1nc2c(n1[C@H]3[C@@H]([C@@H]([C@H](O3)CO[P@](=O)(O)OP(=O)(O)O)O)O)N=C(NC2=O)N

$$$$
