4LOH_1SY_A_401
  RCSB PDB08012022253D
Coordinates from PDB:4LOH:A:401 Model:1 without hydrogens
 45 51  0  0  0  0            999 V2000
  -55.8220    3.1810   66.5030   C 0  0  0  0  0  0  0  0  0  0  0  0
  -56.6460    6.6750   66.5980   N 0  0  0  0  0  0  0  0  0  0  0  0
  -56.5020    5.3850   66.9380   C 0  0  0  0  0  0  0  0  0  0  0  0
  -55.9770    4.5060   66.1300   N 0  0  0  0  0  0  0  0  0  0  0  0
  -56.2230    2.7770   67.7330   N 0  0  0  0  0  0  0  0  0  0  0  0
  -56.7510    3.7350   68.5170   C 0  0  0  0  0  0  0  0  0  0  0  0
  -56.8660    5.0020   68.1480   C 0  0  0  0  0  0  0  0  0  0  0  0
  -57.4210    5.6540   69.1520   N 0  0  0  0  0  0  0  0  0  0  0  0
  -57.6400    4.8140   70.1560   C 0  0  0  0  0  0  0  0  0  0  0  0
  -57.2220    3.6250   69.7310   N 0  0  0  0  0  0  0  0  0  0  0  0
  -57.1100    2.3280   70.1930   C 0  0  0  0  0  0  0  0  0  0  0  0
  -55.8170    2.1110   70.5680   C 0  0  0  0  0  0  0  0  0  0  0  0
  -55.5150    0.5870   70.5310   O 0  0  0  0  0  0  0  0  0  0  0  0
  -55.9180    2.7070   71.9900   C 0  0  0  0  0  0  0  0  0  0  0  0
  -57.1990    2.1300   72.5380   C 0  0  0  0  0  0  0  0  0  0  0  0
  -57.8180    2.8620   73.7640   C 0  0  0  0  0  0  0  0  0  0  0  0
  -58.0520    4.1860   73.3590   O 0  0  0  0  0  0  0  0  0  0  0  0
  -58.1220    5.3240   74.4520   P 0  0  0  0  0  0  0  0  0  0  0  0
  -58.2850    6.6080   73.7510   O 0  0  0  0  0  0  0  0  0  0  0  0
  -56.8590    5.5490   75.3660   O 0  0  0  0  0  0  0  0  0  0  0  0
  -55.5740    5.4880   74.8530   C 0  0  0  0  0  0  0  0  0  0  0  0
  -54.9320    4.4450   75.7340   C 0  0  0  0  0  0  0  0  0  0  0  0
  -55.4310    4.3240   77.2020   O 0  0  0  0  0  0  0  0  0  0  0  0
  -53.5080    4.8580   75.6540   C 0  0  0  0  0  0  0  0  0  0  0  0
  -52.8470    3.9320   74.6380   C 0  0  0  0  0  0  0  0  0  0  0  0
  -53.3560    4.2090   73.2980   O 0  0  0  0  0  0  0  0  0  0  0  0
  -53.3850    2.9870   72.3280   P 0  0  0  0  0  0  0  0  0  0  0  0
  -54.8040    2.1850   72.6620   O 0  0  0  0  0  0  0  0  0  0  0  0
  -52.3000    2.0280   72.8050   O 0  0  0  0  0  0  0  0  0  0  0  0
  -53.2810    3.5950   70.9640   O 0  0  0  0  0  0  0  0  0  0  0  0
  -53.4480    6.2690   75.1930   O 0  0  0  0  0  0  0  0  0  0  0  0
  -54.7440    6.7950   75.0090   C 0  0  0  0  0  0  0  0  0  0  0  0
  -54.5310    7.4790   73.7720   N 0  0  0  0  0  0  0  0  0  0  0  0
  -53.9920    7.0880   72.5960   C 0  0  0  0  0  0  0  0  0  0  0  0
  -54.0600    8.1100   71.7500   N 0  0  0  0  0  0  0  0  0  0  0  0
  -54.8800    8.7130   73.6430   C 0  0  0  0  0  0  0  0  0  0  0  0
  -54.6190    9.1170   72.3820   C 0  0  0  0  0  0  0  0  0  0  0  0
  -54.8910   10.3590   72.0140   C 0  0  0  0  0  0  0  0  0  0  0  0
  -55.4690   11.1450   72.9530   N 0  0  0  0  0  0  0  0  0  0  0  0
  -55.7330   10.6970   74.2640   C 0  0  0  0  0  0  0  0  0  0  0  0
  -56.2910   11.3970   75.2410   N 0  0  0  0  0  0  0  0  0  0  0  0
  -55.4380    9.4700   74.6030   N 0  0  0  0  0  0  0  0  0  0  0  0
  -54.6530   10.8180   70.8840   O 0  0  0  0  0  0  0  0  0  0  0  0
  -59.2160    5.0850   75.5120   O 0  0  0  0  0  0  0  0  0  0  0  0
  -57.9600    2.2550   71.4110   O 0  0  0  0  0  0  0  0  0  0  0  0
 44 18  2  0  0  0  0
 19 18  1  0  0  0  0
 18 17  1  0  0  0  0
 18 20  1  0  0  0  0
 17 16  1  0  0  0  0
 45 15  1  0  0  0  0
 45 11  1  0  0  0  0
 16 15  1  0  0  0  0
  9  8  2  0  0  0  0
  9 10  1  0  0  0  0
  8  7  1  0  0  0  0
 20 21  1  0  0  0  0
 10 11  1  0  0  0  0
 10  6  1  0  0  0  0
 41 40  1  0  0  0  0
 15 14  1  0  0  0  0
 11 12  1  0  0  0  0
  7  6  2  0  0  0  0
  7  3  1  0  0  0  0
  2  3  1  0  0  0  0
  6  5  1  0  0  0  0
 40 42  1  0  0  0  0
 40 39  2  0  0  0  0
  3  4  2  0  0  0  0
 42 36  1  0  0  0  0
 39 38  1  0  0  0  0
 21 22  1  0  0  0  0
 21 32  1  0  0  0  0
 23 22  1  0  0  0  0
  5  1  2  0  0  0  0
 14 12  1  0  0  0  0
 14 28  1  0  0  0  0
  4  1  1  0  0  0  0
 12 13  1  0  0  0  0
 36 37  2  0  0  0  0
 36 33  1  0  0  0  0
 38 43  2  0  0  0  0
 38 37  1  0  0  0  0
 22 24  1  0  0  0  0
 32 33  1  0  0  0  0
 32 31  1  0  0  0  0
 37 35  1  0  0  0  0
 33 34  1  0  0  0  0
 28 27  1  0  0  0  0
 35 34  2  0  0  0  0
 31 24  1  0  0  0  0
 24 25  1  0  0  0  0
 26 27  1  0  0  0  0
 26 25  1  0  0  0  0
 27 29  2  0  0  0  0
 27 30  1  0  0  0  0
M  END
>  <InstanceId>
4LOH_1SY_A_401

>  <ChemCompId>
1SY

>  <PdbId>
4LOH

>  <ChainId>
A

>  <ResidueNumber>
401

>  <InsertionCode>


>  <Model>
1

>  <AltIds>


>  <MissingHeavyAtoms>
0

>  <ObservedFormula>
C20 N10 O13 P2

>  <Name>
cGAMP

>  <SystematicName>


>  <Synonyms>
2',3' cGAMP; c-GMP-AMP; c[G(2',5')pA(3',5')p]

>  <Type>
NON-POLYMER

>  <Formula>
C20 H24 N10 O13 P2

>  <MolecularWeight>
674.411

>  <ModifiedDate>
2020-05-26

>  <Parent>


>  <OneLetterCode>


>  <SubcomponentList>


>  <AmbiguousFlag>
N

>  <InChI>
InChI=1S/C20H24N10O13P2/c21-14-8-15(24-3-23-14)29(4-25-8)18-11(32)12-7(41-18)2-39-45(36,37)43-13-10(31)6(1-38-44(34,35)42-12)40-19(13)30-5-26-9-16(30)27-20(22)28-17(9)33/h3-7,10-13,18-19,31-32H,1-2H2,(H,34,35)(H,36,37)(H2,21,23,24)(H3,22,27,28,33)/t6-,7-,10-,11-,12-,13-,18-,19-/m1/s1

>  <InChIKey>
XRILCFTWUCUKJR-INFSMZHSSA-N

>  <SMILES>
c1nc(c2c(n1)n(cn2)[C@H]3[C@@H]([C@H]4[C@H](O3)COP(=O)(O[C@@H]5[C@@H]([C@@H](COP(=O)(O4)O)O[C@H]5n6cnc7c6NC(=NC7=O)N)O)O)O)N

$$$$
