3V4T_UD1_A_501
  RCSB PDB08012020463D
Coordinates from PDB:3V4T:A:501 Model:1 without hydrogens
 39 41  0  0  0  0            999 V2000
  -39.6560    3.2280   10.6440   C 0  0  0  0  0  0  0  0  0  0  0  0
  -39.5700    2.2520    9.4450   C 0  0  0  0  0  0  0  0  0  0  0  0
  -38.3730    2.5650    8.5760   C 0  0  0  0  0  0  0  0  0  0  0  0
  -38.5150    4.0000    8.0330   C 0  0  0  0  0  0  0  0  0  0  0  0
  -38.5520    4.9810    9.2360   C 0  0  0  0  0  0  0  0  0  0  0  0
  -38.7170    6.4400    8.7810   C 0  0  0  0  0  0  0  0  0  0  0  0
  -40.4780    0.0830   10.3780   C 0  0  0  0  0  0  0  0  0  0  0  0
  -40.0610   -1.3350   10.8480   C 0  0  0  0  0  0  0  0  0  0  0  0
  -39.4560    0.8580    9.9600   N 0  0  0  0  0  0  0  0  0  0  0  0
  -38.5320    3.0060   11.5250   O 0  0  0  0  0  0  0  0  0  0  0  0
  -38.3520    1.6250    7.4460   O 0  0  0  0  0  0  0  0  0  0  0  0
  -37.3720    4.4430    7.1910   O 0  0  0  0  0  0  0  0  0  0  0  0
  -39.7060    4.5740   10.1400   O 0  0  0  0  0  0  0  0  0  0  0  0
  -39.9780    6.6980    8.0500   O 0  0  0  0  0  0  0  0  0  0  0  0
  -41.6180    0.5060   10.3590   O 0  0  0  0  0  0  0  0  0  0  0  0
  -35.6660    8.5570   16.9260   N 0  0  0  0  0  0  0  0  0  0  0  0
  -35.1750    8.9820   18.1750   C 0  0  0  0  0  0  0  0  0  0  0  0
  -35.6580    8.3650   19.3020   N 0  0  0  0  0  0  0  0  0  0  0  0
  -36.6070    7.3410   19.3240   C 0  0  0  0  0  0  0  0  0  0  0  0
  -37.1050    6.9240   18.0190   C 0  0  0  0  0  0  0  0  0  0  0  0
  -36.6300    7.5270   16.8770   C 0  0  0  0  0  0  0  0  0  0  0  0
  -34.3050    9.9070   18.2720   O 0  0  0  0  0  0  0  0  0  0  0  0
  -36.9880    6.8320   20.3630   O 0  0  0  0  0  0  0  0  0  0  0  0
  -35.1650    9.1850   15.6470   C 0  0  0  0  0  0  0  0  0  0  0  0
  -34.3670    8.2810   14.7660   C 0  0  0  0  0  0  0  0  0  0  0  0
  -33.1030    7.6670   15.2660   O 0  0  0  0  0  0  0  0  0  0  0  0
  -34.4030    9.1040   13.4410   C 0  0  0  0  0  0  0  0  0  0  0  0
  -35.9030    9.5510   13.4750   C 0  0  0  0  0  0  0  0  0  0  0  0
  -36.2790    9.5760   14.8610   O 0  0  0  0  0  0  0  0  0  0  0  0
  -33.3280   10.1240   13.5240   O 0  0  0  0  0  0  0  0  0  0  0  0
  -36.9230    8.6110   12.7810   C 0  0  0  0  0  0  0  0  0  0  0  0
  -37.0340    7.2930   13.3990   O 0  0  0  0  0  0  0  0  0  0  0  0
  -38.3760    6.5320   13.5120   P 0  0  0  0  0  0  0  0  0  0  0  0
  -39.4360    7.3450   12.9320   O 0  0  0  0  0  0  0  0  0  0  0  0
  -38.6530    6.2450   14.9120   O 0  0  0  0  0  0  0  0  0  0  0  0
  -38.4250    5.3470   12.5760   O 0  0  0  0  0  0  0  0  0  0  0  0
  -38.3780    3.7970   12.8940   P 0  0  0  0  0  0  0  0  0  0  0  0
  -39.5700    3.5020   13.6370   O 0  0  0  0  0  0  0  0  0  0  0  0
  -37.1770    3.3390   13.5340   O 0  0  0  0  0  0  0  0  0  0  0  0
  1  2  1  0  0  0  0
  1 10  1  0  0  0  0
  1 13  1  0  0  0  0
  2  3  1  0  0  0  0
  2  9  1  0  0  0  0
  3  4  1  0  0  0  0
  3 11  1  0  0  0  0
  4  5  1  0  0  0  0
  4 12  1  0  0  0  0
  5  6  1  0  0  0  0
  5 13  1  0  0  0  0
  6 14  1  0  0  0  0
  7  8  1  0  0  0  0
  7  9  1  0  0  0  0
  7 15  2  0  0  0  0
 10 37  1  0  0  0  0
 16 17  1  0  0  0  0
 16 21  1  0  0  0  0
 16 24  1  0  0  0  0
 17 18  1  0  0  0  0
 17 22  2  0  0  0  0
 18 19  1  0  0  0  0
 19 20  1  0  0  0  0
 19 23  2  0  0  0  0
 20 21  2  0  0  0  0
 24 25  1  0  0  0  0
 24 29  1  0  0  0  0
 25 26  1  0  0  0  0
 25 27  1  0  0  0  0
 27 28  1  0  0  0  0
 27 30  1  0  0  0  0
 28 29  1  0  0  0  0
 28 31  1  0  0  0  0
 31 32  1  0  0  0  0
 32 33  1  0  0  0  0
 33 34  2  0  0  0  0
 33 35  1  0  0  0  0
 33 36  1  0  0  0  0
 36 37  1  0  0  0  0
 37 38  2  0  0  0  0
 37 39  1  0  0  0  0
M  END
>  <InstanceId>
3V4T_UD1_A_501

>  <ChemCompId>
UD1

>  <PdbId>
3V4T

>  <ChainId>
A

>  <ResidueNumber>
501

>  <InsertionCode>


>  <Model>
1

>  <AltIds>


>  <MissingHeavyAtoms>
0

>  <ObservedFormula>
C17 N3 O17 P2

>  <Name>
URIDINE-DIPHOSPHATE-N-ACETYLGLUCOSAMINE

>  <SystematicName>
[[(2R,3R,4R,5S,6R)-3-acetamido-4,5-dihydroxy-6-(hydroxymethyl)oxan-2-yl]oxy-hydroxy-phosphoryl] [(2R,3S,4R,5R)-5-(2,4-dioxopyrimidin-1-yl)-3,4-dihydroxy-oxolan-2-yl]methyl hydrogen phosphate

>  <Synonyms>


>  <Type>
NON-POLYMER

>  <Formula>
C17 H27 N3 O17 P2

>  <MolecularWeight>
607.354

>  <ModifiedDate>
2011-06-04

>  <Parent>


>  <OneLetterCode>


>  <SubcomponentList>


>  <AmbiguousFlag>
N

>  <InChI>
InChI=1S/C17H27N3O17P2/c1-6(22)18-10-13(26)11(24)7(4-21)35-16(10)36-39(31,32)37-38(29,30)33-5-8-12(25)14(27)15(34-8)20-3-2-9(23)19-17(20)28/h2-3,7-8,10-16,21,24-27H,4-5H2,1H3,(H,18,22)(H,29,30)(H,31,32)(H,19,23,28)/t7-,8-,10-,11-,12-,13-,14-,15-,16-/m1/s1

>  <InChIKey>
LFTYTUAZOPRMMI-CFRASDGPSA-N

>  <SMILES>
CC(=O)N[C@@H]1[C@H]([C@@H]([C@H](O[C@@H]1O[P@@](=O)(O)O[P@@](=O)(O)OC[C@@H]2[C@H]([C@H]([C@@H](O2)N3C=CC(=O)NC3=O)O)O)CO)O)O

$$$$
