3T5U_A09_A_263
  RCSB PDB08012020323D
Coordinates from PDB:3T5U:A:263 Model:1 without hydrogens
 11 11  0  0  0  0            999 V2000
   -5.7290    2.5010   16.0620   C 0  0  0  0  0  0  0  0  0  0  0  0
   -5.3440   -0.2420   15.9170   N 0  0  0  0  0  0  0  0  0  0  0  0
   -7.4220    0.7610   16.8340   O 0  0  0  0  0  0  0  0  0  0  0  0
   -5.9960    0.9500   16.8370   S 0  0  0  0  0  0  0  0  0  0  0  0
   -6.1530    3.6760   16.7270   C 0  0  0  0  0  0  0  0  0  0  0  0
   -5.3020    0.9690   18.0930   O 0  0  0  0  0  0  0  0  0  0  0  0
   -5.9430    4.9200   16.1000   C 0  0  0  0  0  0  0  0  0  0  0  0
   -3.9270   -0.2150   15.9740   O 0  0  0  0  0  0  0  0  0  0  0  0
   -5.3300    4.9880   14.8430   C 0  0  0  0  0  0  0  0  0  0  0  0
   -4.9160    3.8230   14.1940   C 0  0  0  0  0  0  0  0  0  0  0  0
   -5.1080    2.5600   14.7900   C 0  0  0  0  0  0  0  0  0  0  0  0
 11  1  2  0  0  0  0
  5  1  1  0  0  0  0
  1  4  1  0  0  0  0
  4  2  1  0  0  0  0
  2  8  1  0  0  0  0
  4  3  2  0  0  0  0
  6  4  2  0  0  0  0
  7  5  2  0  0  0  0
  9  7  1  0  0  0  0
  9 10  2  0  0  0  0
 10 11  1  0  0  0  0
M  END
>  <InstanceId>
3T5U_A09_A_263

>  <ChemCompId>
A09

>  <PdbId>
3T5U

>  <ChainId>
A

>  <ResidueNumber>
263

>  <InsertionCode>


>  <Model>
1

>  <AltIds>


>  <MissingHeavyAtoms>
0

>  <ObservedFormula>
C6 N O3 S

>  <Name>
N-hydroxybenzenesulfonamide

>  <SystematicName>
N-oxidanylbenzenesulfonamide

>  <Synonyms>


>  <Type>
NON-POLYMER

>  <Formula>
C6 H7 N O3 S

>  <MolecularWeight>
173.19

>  <ModifiedDate>
2012-06-15

>  <Parent>


>  <OneLetterCode>


>  <SubcomponentList>


>  <AmbiguousFlag>
N

>  <InChI>
InChI=1S/C6H7NO3S/c8-7-11(9,10)6-4-2-1-3-5-6/h1-5,7-8H

>  <InChIKey>
BRMDATNYMUMZLN-UHFFFAOYSA-N

>  <SMILES>
c1ccc(cc1)S(=O)(=O)NO

$$$$
