5NK7_8ZZ_A_1001
  RCSB PDB08022002333D
Coordinates from PDB:5NK7:A:1001 Model:1 without hydrogens
 33 36  0  0  0  0            999 V2000
  -81.1290  -12.4910    2.4200   F 0  0  0  0  0  0  0  0  0  0  0  0
  -80.0380  -12.8840    3.1450   C 0  0  0  0  0  0  0  0  0  0  0  0
  -78.7730  -12.6730    2.3270   C 0  0  0  0  0  0  0  0  0  0  0  0
  -77.5850  -13.0910    3.0860   N 0  0  0  0  0  0  0  0  0  0  0  0
  -77.6910  -14.5160    3.4340   C 0  0  0  0  0  0  0  0  0  0  0  0
  -78.9140  -14.7680    4.3000   C 0  0  0  0  0  0  0  0  0  0  0  0
  -80.1590  -14.3540    3.5360   C 0  0  0  0  0  0  0  0  0  0  0  0
  -81.3310  -14.5170    4.4070   N 0  0  0  0  0  0  0  0  0  0  0  0
  -82.4220  -15.2200    4.0680   C 0  0  0  0  0  0  0  0  0  0  0  0
  -82.5700  -15.7960    2.9920   O 0  0  0  0  0  0  0  0  0  0  0  0
  -83.4210  -15.2050    5.0400   C 0  0  0  0  0  0  0  0  0  0  0  0
  -84.7680  -15.2310    4.6860   C 0  0  0  0  0  0  0  0  0  0  0  0
  -83.0530  -15.1320    6.3770   C 0  0  0  0  0  0  0  0  0  0  0  0
  -84.0300  -15.0990    7.3600   C 0  0  0  0  0  0  0  0  0  0  0  0
  -85.3710  -15.1220    6.9980   C 0  0  0  0  0  0  0  0  0  0  0  0
  -85.7650  -15.2060    5.6620   C 0  0  0  0  0  0  0  0  0  0  0  0
  -87.0510  -15.2250    5.2530   N 0  0  0  0  0  0  0  0  0  0  0  0
  -88.0710  -15.7650    5.9500   C 0  0  0  0  0  0  0  0  0  0  0  0
  -88.0670  -16.5640    7.4250   S 0  0  0  0  0  0  0  0  0  0  0  0
  -89.3410  -15.7350    5.5150   N 0  0  0  0  0  0  0  0  0  0  0  0
  -90.2370  -16.3240    6.3430   C 0  0  0  0  0  0  0  0  0  0  0  0
  -89.6930  -16.8460    7.4530   C 0  0  0  0  0  0  0  0  0  0  0  0
  -90.3390  -17.4840    8.4430   C 0  0  0  0  0  0  0  0  0  0  0  0
  -89.7270  -17.8380    9.4490   O 0  0  0  0  0  0  0  0  0  0  0  0
  -91.6640  -17.6900    8.2710   N 0  0  0  0  0  0  0  0  0  0  0  0
  -92.3540  -18.2940    9.2610   C 0  0  0  0  0  0  0  0  0  0  0  0
  -92.5230  -19.6820    9.2620   C 0  0  0  0  0  0  0  0  0  0  0  0
  -91.8540  -20.7200    8.0190  Cl 0  0  0  0  0  0  0  0  0  0  0  0
  -93.2520  -20.2660   10.2940   C 0  0  0  0  0  0  0  0  0  0  0  0
  -93.8040  -19.4840   11.3060   C 0  0  0  0  0  0  0  0  0  0  0  0
  -93.6360  -18.1040   11.2950   C 0  0  0  0  0  0  0  0  0  0  0  0
  -92.9110  -17.5000   10.2690   C 0  0  0  0  0  0  0  0  0  0  0  0
  -92.7570  -16.1160   10.2740   C 0  0  0  0  0  0  0  0  0  0  0  0
  3  4  1  0  0  0  0
  3  2  1  0  0  0  0
  1  2  1  0  0  0  0
 10  9  2  0  0  0  0
  4  5  1  0  0  0  0
  2  7  1  0  0  0  0
  5  6  1  0  0  0  0
  7  6  1  0  0  0  0
  7  8  1  0  0  0  0
  9  8  1  0  0  0  0
  9 11  1  0  0  0  0
 12 11  2  0  0  0  0
 12 16  1  0  0  0  0
 11 13  1  0  0  0  0
 17 16  1  0  0  0  0
 17 18  1  0  0  0  0
 20 18  2  0  0  0  0
 20 21  1  0  0  0  0
 16 15  2  0  0  0  0
 18 19  1  0  0  0  0
 21 22  2  0  0  0  0
 13 14  2  0  0  0  0
 15 14  1  0  0  0  0
 19 22  1  0  0  0  0
 22 23  1  0  0  0  0
 28 27  1  0  0  0  0
 25 23  1  0  0  0  0
 25 26  1  0  0  0  0
 23 24  2  0  0  0  0
 26 27  2  0  0  0  0
 26 32  1  0  0  0  0
 27 29  1  0  0  0  0
 32 33  1  0  0  0  0
 32 31  2  0  0  0  0
 29 30  2  0  0  0  0
 31 30  1  0  0  0  0
M  END
>  <InstanceId>
5NK7_8ZZ_A_1001

>  <ChemCompId>
8ZZ

>  <PdbId>
5NK7

>  <ChainId>
A

>  <ResidueNumber>
1001

>  <InsertionCode>


>  <Model>
1

>  <AltIds>


>  <MissingHeavyAtoms>
0

>  <ObservedFormula>
C23 N5 O2 S F Cl

>  <Name>
~{N}-(2-chloranyl-6-methyl-phenyl)-2-[[3-[[(3~{R},4~{R})-3-fluoranylpiperidin-4-yl]carbamoyl]phenyl]amino]-1,3-thiazole-5-carboxamide

>  <SystematicName>
~{N}-(2-chloranyl-6-methyl-phenyl)-2-[[3-[[(3~{R},4~{R})-3-fluoranylpiperidin-4-yl]carbamoyl]phenyl]amino]-1,3-thiazole-5-carboxamide

>  <Synonyms>


>  <Type>
NON-POLYMER

>  <Formula>
C23 H23 Cl F N5 O2 S

>  <MolecularWeight>
487.977

>  <ModifiedDate>
2017-06-02

>  <Parent>


>  <OneLetterCode>


>  <SubcomponentList>


>  <AmbiguousFlag>
N

>  <InChI>
InChI=1S/C23H23ClFN5O2S/c1-13-4-2-7-16(24)20(13)30-22(32)19-12-27-23(33-19)28-15-6-3-5-14(10-15)21(31)29-18-8-9-26-11-17(18)25/h2-7,10,12,17-18,26H,8-9,11H2,1H3,(H,27,28)(H,29,31)(H,30,32)/t17-,18-/m1/s1

>  <InChIKey>
RRUBGRARVNLPQT-QZTJIDSGSA-N

>  <SMILES>
Cc1cccc(c1NC(=O)c2cnc(s2)Nc3cccc(c3)C(=O)N[C@@H]4CCNC[C@H]4F)Cl

$$$$
