5OQU_A4B_A_402
  RCSB PDB08022002443D
Coordinates from PDB:5OQU:A:402 Model:1 without hydrogens
 17 18  0  0  0  0            999 V2000
    4.4090  143.8390  350.8820   C 0  0  0  0  0  0  0  0  0  0  0  0
    5.1120  136.1340  352.8250   C 0  0  0  0  0  0  0  0  0  0  0  0
    4.9710  144.1370  349.6630   C 0  0  0  0  0  0  0  0  0  0  0  0
    5.5590  143.1410  348.9050   C 0  0  0  0  0  0  0  0  0  0  0  0
    5.5780  141.8400  349.3830   C 0  0  0  0  0  0  0  0  0  0  0  0
    4.1840  139.1160  350.6830   C 0  0  0  0  0  0  0  0  0  0  0  0
    3.0770  139.4420  349.3890  Cl 0  0  0  0  0  0  0  0  0  0  0  0
    4.2110  137.8400  351.2090   C 0  0  0  0  0  0  0  0  0  0  0  0
    5.0790  137.5260  352.2460   C 0  0  0  0  0  0  0  0  0  0  0  0
    6.0380  135.2140  352.1730   N 0  0  0  0  0  0  0  0  0  0  0  0
    5.9100  138.5210  352.7330   C 0  0  0  0  0  0  0  0  0  0  0  0
    5.8830  139.7990  352.2050   C 0  0  0  0  0  0  0  0  0  0  0  0
    5.0160  140.1240  351.1650   C 0  0  0  0  0  0  0  0  0  0  0  0
    5.0120  141.5150  350.6190   C 0  0  0  0  0  0  0  0  0  0  0  0
    6.1390  140.8000  348.6960   O 0  0  0  0  0  0  0  0  0  0  0  0
    6.6700  141.0770  347.4030   C 0  0  0  0  0  0  0  0  0  0  0  0
    4.4270  142.5410  351.3600   C 0  0  0  0  0  0  0  0  0  0  0  0
 16 15  1  0  0  0  0
 15  5  1  0  0  0  0
  4  5  2  0  0  0  0
  4  3  1  0  0  0  0
  5 14  1  0  0  0  0
  7  6  1  0  0  0  0
  3  1  2  0  0  0  0
 14 13  1  0  0  0  0
 14 17  2  0  0  0  0
  6 13  2  0  0  0  0
  6  8  1  0  0  0  0
  1 17  1  0  0  0  0
 13 12  1  0  0  0  0
  8  9  2  0  0  0  0
 10  2  1  0  0  0  0
 12 11  2  0  0  0  0
  9 11  1  0  0  0  0
  9  2  1  0  0  0  0
M  END
>  <InstanceId>
5OQU_A4B_A_402

>  <ChemCompId>
A4B

>  <PdbId>
5OQU

>  <ChainId>
A

>  <ResidueNumber>
402

>  <InsertionCode>


>  <Model>
1

>  <AltIds>


>  <MissingHeavyAtoms>
0

>  <ObservedFormula>
C14 N O Cl

>  <Name>
[3-chloranyl-4-(2-methoxyphenyl)phenyl]methanamine

>  <SystematicName>
[3-chloranyl-4-(2-methoxyphenyl)phenyl]methanamine

>  <Synonyms>


>  <Type>
NON-POLYMER

>  <Formula>
C14 H14 Cl N O

>  <MolecularWeight>
247.72

>  <ModifiedDate>
2018-02-23

>  <Parent>


>  <OneLetterCode>


>  <SubcomponentList>


>  <AmbiguousFlag>
N

>  <InChI>
InChI=1S/C14H14ClNO/c1-17-14-5-3-2-4-12(14)11-7-6-10(9-16)8-13(11)15/h2-8H,9,16H2,1H3

>  <InChIKey>
LRYGKGSWWOPVKM-UHFFFAOYSA-N

>  <SMILES>
COc1ccccc1c2ccc(cc2Cl)CN

$$$$
