6DJ7_G10_B_201
  RCSB PDB08022004233D
Coordinates from PDB:6DJ7:B:201 Model:1 without hydrogens
 40 43  0  0  0  0            999 V2000
    7.2430   14.5440   14.4920   N 0  0  0  0  0  0  0  0  0  0  0  0
    7.9680   15.6030   14.8620   C 0  0  0  0  0  0  0  0  0  0  0  0
    9.3130   15.6980   14.5250   C 0  0  0  0  0  0  0  0  0  0  0  0
   10.1160   16.7670   14.8780   C 0  0  0  0  0  0  0  0  0  0  0  0
    9.5220   17.7890   15.6200   C 0  0  0  0  0  0  0  0  0  0  0  0
    8.1910   17.7010   15.9920   C 0  0  0  0  0  0  0  0  0  0  0  0
    7.3940   16.6180   15.6290   C 0  0  0  0  0  0  0  0  0  0  0  0
   10.4670   19.1960   16.1230   S 0  0  0  0  0  0  0  0  0  0  0  0
   11.5240   19.4110   15.1530   O 0  0  0  0  0  0  0  0  0  0  0  0
    9.5320   20.3070   16.3530   O 0  0  0  0  0  0  0  0  0  0  0  0
   11.0840   18.8320   17.5960   N 0  0  0  0  0  0  0  0  0  0  0  0
   10.1120   18.5310   18.6140   C 0  0  0  0  0  0  0  0  0  0  0  0
   10.4460   19.1920   19.9600   C 0  0  0  0  0  0  0  0  0  0  0  0
   10.4310   20.7180   19.8380   C 0  0  0  0  0  0  0  0  0  0  0  0
    9.4820   18.7200   21.0660   C 0  0  0  0  0  0  0  0  0  0  0  0
   12.3560   18.1550   17.5350   C 0  0  0  0  0  0  0  0  0  0  0  0
   13.4830   19.0280   18.0660   C 0  0  0  0  0  0  0  0  0  0  0  0
   14.6350   18.2470   18.4340   O 0  0  0  0  0  0  0  0  0  0  0  0
   13.9050   20.1840   17.1500   C 0  0  0  0  0  0  0  0  0  0  0  0
   14.7980   21.1010   17.8670   N 0  0  0  0  0  0  0  0  0  0  0  0
   14.4870   22.3480   18.2480   C 0  0  0  0  0  0  0  0  0  0  0  0
   13.3650   22.8380   18.0090   O 0  0  0  0  0  0  0  0  0  0  0  0
   15.5060   22.9830   18.8800   O 0  0  0  0  0  0  0  0  0  0  0  0
   15.3180   24.3680   19.2150   C 0  0  0  0  0  0  0  0  0  0  0  0
   15.9200   24.5910   20.6020   C 0  0  0  0  0  0  0  0  0  0  0  0
   17.3410   24.6130   20.4250   O 0  0  0  0  0  0  0  0  0  0  0  0
   17.5970   25.1540   19.1340   C 0  0  0  0  0  0  0  0  0  0  0  0
   18.4250   24.2220   18.4360   O 0  0  0  0  0  0  0  0  0  0  0  0
   17.8090   23.7220   17.2500   C 0  0  0  0  0  0  0  0  0  0  0  0
   16.6650   24.6870   17.0260   C 0  0  0  0  0  0  0  0  0  0  0  0
   16.2910   25.2300   18.3810   C 0  0  0  0  0  0  0  0  0  0  0  0
   14.6620   19.6770   15.9160   C 0  0  0  0  0  0  0  0  0  0  0  0
   16.4070   21.1370   14.8550   C 0  0  0  0  0  0  0  0  0  0  0  0
   16.8140   22.1620   14.0270   C 0  0  0  0  0  0  0  0  0  0  0  0
   15.8810   22.9050   13.3010   C 0  0  0  0  0  0  0  0  0  0  0  0
   14.5410   22.5530   13.3740   C 0  0  0  0  0  0  0  0  0  0  0  0
   14.1090   21.5200   14.2140   C 0  0  0  0  0  0  0  0  0  0  0  0
   15.0490   20.8070   14.9670   C 0  0  0  0  0  0  0  0  0  0  0  0
   15.6060   24.1190   16.4060   F 0  0  0  0  0  0  0  0  0  0  0  0
   17.1300   25.6850   16.2310   F 0  0  0  0  0  0  0  0  0  0  0  0
 35 36  2  0  0  0  0
 35 34  1  0  0  0  0
 36 37  1  0  0  0  0
 34 33  2  0  0  0  0
  1  2  1  0  0  0  0
 37 38  2  0  0  0  0
  3  2  2  0  0  0  0
  3  4  1  0  0  0  0
  2  7  1  0  0  0  0
  4  5  2  0  0  0  0
 33 38  1  0  0  0  0
 38 32  1  0  0  0  0
  9  8  2  0  0  0  0
  7  6  2  0  0  0  0
  5  6  1  0  0  0  0
  5  8  1  0  0  0  0
 32 19  1  0  0  0  0
 40 30  1  0  0  0  0
  8 10  2  0  0  0  0
  8 11  1  0  0  0  0
 39 30  1  0  0  0  0
 30 29  1  0  0  0  0
 30 31  1  0  0  0  0
 19 20  1  0  0  0  0
 19 17  1  0  0  0  0
 29 28  1  0  0  0  0
 16 11  1  0  0  0  0
 16 17  1  0  0  0  0
 11 12  1  0  0  0  0
 20 21  1  0  0  0  0
 22 21  2  0  0  0  0
 17 18  1  0  0  0  0
 21 23  1  0  0  0  0
 31 27  1  0  0  0  0
 31 24  1  0  0  0  0
 28 27  1  0  0  0  0
 12 13  1  0  0  0  0
 23 24  1  0  0  0  0
 27 26  1  0  0  0  0
 24 25  1  0  0  0  0
 14 13  1  0  0  0  0
 13 15  1  0  0  0  0
 26 25  1  0  0  0  0
M  END
>  <InstanceId>
6DJ7_G10_B_201

>  <ChemCompId>
G10

>  <PdbId>
6DJ7

>  <ChainId>
B

>  <ResidueNumber>
201

>  <InsertionCode>


>  <Model>
1

>  <AltIds>


>  <MissingHeavyAtoms>
0

>  <ObservedFormula>
C27 N3 O7 S F2

>  <Name>
(3R,3aS,6aS)-4,4-difluorohexahydrofuro[2,3-b]furan-3-yl [(2S,3R)-4-{[(4-aminophenyl)sulfonyl](2-methylpropyl)amino}-3-hydroxy-1-phenylbutan-2-yl]carbamate

>  <SystematicName>
[(3R,3aS,6aS)-4,4-bis(fluoranyl)-3,3a,5,6a-tetrahydro-2H-furo[2,3-b]furan-3-yl] N-[(2S,3R)-4-[(4-aminophenyl)sulfonyl-(2-methylpropyl)amino]-3-oxidanyl-1-phenyl-butan-2-yl]carbamate

>  <Synonyms>


>  <Type>
NON-POLYMER

>  <Formula>
C27 H35 F2 N3 O7 S

>  <MolecularWeight>
583.645

>  <ModifiedDate>
2014-10-31

>  <Parent>


>  <OneLetterCode>


>  <SubcomponentList>


>  <AmbiguousFlag>
N

>  <InChI>
InChI=1S/C27H35F2N3O7S/c1-17(2)13-32(40(35,36)20-10-8-19(30)9-11-20)14-22(33)21(12-18-6-4-3-5-7-18)31-26(34)39-23-15-37-25-24(23)27(28,29)16-38-25/h3-11,17,21-25,33H,12-16,30H2,1-2H3,(H,31,34)/t21-,22+,23-,24-,25-/m0/s1

>  <InChIKey>
UQYAKJSDOQPRAX-YCXOGWGTSA-N

>  <SMILES>
CC(C)CN(C[C@H]([C@H](Cc1ccccc1)NC(=O)O[C@H]2CO[C@@H]3[C@H]2C(CO3)(F)F)O)S(=O)(=O)c4ccc(cc4)N

$$$$
