5ITP_6DB_A_301
  RCSB PDB08022001473D
Coordinates from PDB:5ITP:A:301 Model:1 without hydrogens
 17 16  0  0  0  0            999 V2000
  -14.0890   80.6440   -1.0480   O 0  0  0  0  0  0  0  0  0  0  0  0
  -14.9730   81.1900   -0.3570   C 0  0  0  0  0  0  0  0  0  0  0  0
  -16.1030   80.3180    0.1940   C 0  0  0  0  0  0  0  0  0  0  0  0
  -17.3000   80.4030   -0.6870   C 0  0  0  0  0  0  0  0  0  0  0  0
  -15.7070   78.9190    0.3770   N 0  0  0  0  0  0  0  0  0  0  0  0
  -14.5160   78.6470    1.1760   C 0  0  0  0  0  0  0  0  0  0  0  0
  -14.3840   77.1710    1.4660   C 0  0  0  0  0  0  0  0  0  0  0  0
  -15.2870   76.3690    1.1180   O 0  0  0  0  0  0  0  0  0  0  0  0
  -13.3670   76.7530    2.0870   O 0  0  0  0  0  0  0  0  0  0  0  0
  -14.4440   79.3840    2.5350   C 0  0  0  0  0  0  0  0  0  0  0  0
  -15.5650   79.0000    3.4850   C 0  0  0  0  0  0  0  0  0  0  0  0
  -15.5400   79.6600    4.8660   C 0  0  0  0  0  0  0  0  0  0  0  0
  -16.9060   79.5900    5.4490   N 0  0  0  0  0  0  0  0  0  0  0  0
  -17.3390   80.3130    6.6040   C 0  0  0  0  0  0  0  0  0  0  0  0
  -18.5740   80.1920    7.0290   N 0  0  0  0  0  0  0  0  0  0  0  0
  -16.4600   81.0110    7.2380   N 0  0  0  0  0  0  0  0  0  0  0  0
  -14.9240   82.4210   -0.1140   O 0  0  0  0  0  0  0  0  0  0  0  0
  1  2  2  0  0  0  0
  4  3  1  0  0  0  0
  2 17  1  0  0  0  0
  2  3  1  0  0  0  0
  3  5  1  0  0  0  0
  5  6  1  0  0  0  0
  8  7  2  0  0  0  0
  6  7  1  0  0  0  0
  6 10  1  0  0  0  0
  7  9  1  0  0  0  0
 10 11  1  0  0  0  0
 11 12  1  0  0  0  0
 12 13  1  0  0  0  0
 13 14  1  0  0  0  0
 14 15  2  0  0  0  0
 14 16  1  0  0  0  0
M  END
>  <InstanceId>
5ITP_6DB_A_301

>  <ChemCompId>
6DB

>  <PdbId>
5ITP

>  <ChainId>
A

>  <ResidueNumber>
301

>  <InsertionCode>


>  <Model>
1

>  <AltIds>


>  <MissingHeavyAtoms>
0

>  <ObservedFormula>
C9 N4 O4

>  <Name>
octopine

>  <SystematicName>
(2~{S})-5-carbamimidamido-2-[[(2~{R})-1-oxidanyl-1-oxidanylidene-propan-2-yl]amino]pentanoic acid

>  <Synonyms>


>  <Type>
NON-POLYMER

>  <Formula>
C9 H18 N4 O4

>  <MolecularWeight>
246.264

>  <ModifiedDate>
2016-11-25

>  <Parent>


>  <OneLetterCode>


>  <SubcomponentList>


>  <AmbiguousFlag>
N

>  <InChI>
InChI=1S/C9H18N4O4/c1-5(7(14)15)13-6(8(16)17)3-2-4-12-9(10)11/h5-6,13H,2-4H2,1H3,(H,14,15)(H,16,17)(H4,10,11,12)/t5-,6+/m1/s1

>  <InChIKey>
IMXSCCDUAFEIOE-RITPCOANSA-N

>  <SMILES>
[H]/N=C(/N)\NCCC[C@@H](C(=O)O)N[C@H](C)C(=O)O

$$$$
