3GGU_017_B_201
  RCSB PDB08012019063D
Coordinates from PDB:3GGU:B:201 Model:1 without hydrogens
 38 41  0  0  0  0            999 V2000
   -9.3630   16.8160   18.7360   N 0  0  0  0  0  0  0  0  0  0  0  0
   -9.1960   16.5170   20.0320   C 0  0  0  0  0  0  0  0  0  0  0  0
  -10.3240   16.4200   20.8380   C 0  0  0  0  0  0  0  0  0  0  0  0
  -10.1840   16.1130   22.1820   C 0  0  0  0  0  0  0  0  0  0  0  0
   -8.9080   15.8960   22.7100   C 0  0  0  0  0  0  0  0  0  0  0  0
   -7.7810   15.9870   21.8870   C 0  0  0  0  0  0  0  0  0  0  0  0
   -7.9200   16.3050   20.5390   C 0  0  0  0  0  0  0  0  0  0  0  0
   -8.7740   15.5360   24.2600   S 0  0  0  0  0  0  0  0  0  0  0  0
   -9.9220   14.7830   24.6610   O 0  0  0  0  0  0  0  0  0  0  0  0
   -7.5990   14.7620   24.4660   O 0  0  0  0  0  0  0  0  0  0  0  0
   -8.6080   16.8270   25.2560   N 0  0  0  0  0  0  0  0  0  0  0  0
   -7.4760   17.7030   24.8680   C 0  0  0  0  0  0  0  0  0  0  0  0
   -6.9370   18.4360   26.1080   C 0  0  0  0  0  0  0  0  0  0  0  0
   -6.3150   17.4760   27.1190   C 0  0  0  0  0  0  0  0  0  0  0  0
   -5.9480   19.5240   25.7120   C 0  0  0  0  0  0  0  0  0  0  0  0
   -9.8680   17.5970   25.3870   C 0  0  0  0  0  0  0  0  0  0  0  0
  -10.3380   17.6320   26.8480   C 0  0  0  0  0  0  0  0  0  0  0  0
  -11.3910   18.5840   27.0110   O 0  0  0  0  0  0  0  0  0  0  0  0
  -10.8000   16.2660   27.3620   C 0  0  0  0  0  0  0  0  0  0  0  0
  -10.8560   16.4080   28.8070   N 0  0  0  0  0  0  0  0  0  0  0  0
   -9.9920   15.8310   29.6430   C 0  0  0  0  0  0  0  0  0  0  0  0
   -9.0390   15.1110   29.3290   O 0  0  0  0  0  0  0  0  0  0  0  0
  -10.2390   16.1190   31.0320   O 0  0  0  0  0  0  0  0  0  0  0  0
   -9.5500   15.3460   32.0010   C 0  0  0  0  0  0  0  0  0  0  0  0
   -9.2420   16.3700   33.0730   C 0  0  0  0  0  0  0  0  0  0  0  0
  -10.4870   16.5310   33.7560   O 0  0  0  0  0  0  0  0  0  0  0  0
  -11.1740   15.2720   33.7600   C 0  0  0  0  0  0  0  0  0  0  0  0
  -12.5360   15.4970   33.4170   O 0  0  0  0  0  0  0  0  0  0  0  0
  -12.9000   14.7710   32.2320   C 0  0  0  0  0  0  0  0  0  0  0  0
  -11.6850   13.9630   31.7920   C 0  0  0  0  0  0  0  0  0  0  0  0
  -10.5390   14.4150   32.6790   C 0  0  0  0  0  0  0  0  0  0  0  0
  -12.2200   15.8860   26.9260   C 0  0  0  0  0  0  0  0  0  0  0  0
  -13.5770   14.3570   28.3480   C 0  0  0  0  0  0  0  0  0  0  0  0
  -13.8270   13.0950   28.8470   C 0  0  0  0  0  0  0  0  0  0  0  0
  -13.0520   12.0110   28.4690   C 0  0  0  0  0  0  0  0  0  0  0  0
  -11.9960   12.1870   27.5850   C 0  0  0  0  0  0  0  0  0  0  0  0
  -11.7260   13.4490   27.0740   C 0  0  0  0  0  0  0  0  0  0  0  0
  -12.5230   14.5300   27.4540   C 0  0  0  0  0  0  0  0  0  0  0  0
  1  2  1  0  0  0  0
  2  3  2  0  0  0  0
  2  7  1  0  0  0  0
  3  4  1  0  0  0  0
  4  5  2  0  0  0  0
  5  6  1  0  0  0  0
  5  8  1  0  0  0  0
  6  7  2  0  0  0  0
  8  9  2  0  0  0  0
  8 10  2  0  0  0  0
  8 11  1  0  0  0  0
 11 12  1  0  0  0  0
 11 16  1  0  0  0  0
 12 13  1  0  0  0  0
 13 14  1  0  0  0  0
 13 15  1  0  0  0  0
 16 17  1  0  0  0  0
 17 18  1  0  0  0  0
 17 19  1  0  0  0  0
 19 20  1  0  0  0  0
 19 32  1  0  0  0  0
 20 21  1  0  0  0  0
 21 22  2  0  0  0  0
 21 23  1  0  0  0  0
 23 24  1  0  0  0  0
 24 25  1  0  0  0  0
 24 31  1  0  0  0  0
 25 26  1  0  0  0  0
 26 27  1  0  0  0  0
 27 28  1  0  0  0  0
 27 31  1  0  0  0  0
 28 29  1  0  0  0  0
 29 30  1  0  0  0  0
 30 31  1  0  0  0  0
 32 38  1  0  0  0  0
 33 34  2  0  0  0  0
 33 38  1  0  0  0  0
 34 35  1  0  0  0  0
 35 36  2  0  0  0  0
 36 37  1  0  0  0  0
 37 38  2  0  0  0  0
M  END
>  <InstanceId>
3GGU_017_B_201

>  <ChemCompId>
017

>  <PdbId>
3GGU

>  <ChainId>
B

>  <ResidueNumber>
201

>  <InsertionCode>


>  <Model>
1

>  <AltIds>


>  <MissingHeavyAtoms>
0

>  <ObservedFormula>
C27 N3 O7 S

>  <Name>
(3R,3AS,6AR)-HEXAHYDROFURO[2,3-B]FURAN-3-YL(1S,2R)-3-[[(4-AMINOPHENYL)SULFONYL](ISOBUTYL)AMINO]-1-BENZYL-2-HYDROXYPROPYLCARBAMATE

>  <SystematicName>
[(3R,3aS,6aR)-2,3,3a,4,5,6a-hexahydrofuro[2,3-b]furan-3-yl] N-[(2S,3R)-4-[(4-aminophenyl)sulfonyl-(2-methylpropyl)amino]-3-hydroxy-1-phenyl-butan-2-yl]carbamate

>  <Synonyms>
Darunavir; TMC114; UIC-94017

>  <Type>
NON-POLYMER

>  <Formula>
C27 H37 N3 O7 S

>  <MolecularWeight>
547.664

>  <ModifiedDate>
2020-05-22

>  <Parent>


>  <OneLetterCode>


>  <SubcomponentList>


>  <AmbiguousFlag>
N

>  <InChI>
InChI=1S/C27H37N3O7S/c1-18(2)15-30(38(33,34)21-10-8-20(28)9-11-21)16-24(31)23(14-19-6-4-3-5-7-19)29-27(32)37-25-17-36-26-22(25)12-13-35-26/h3-11,18,22-26,31H,12-17,28H2,1-2H3,(H,29,32)/t22-,23-,24+,25-,26+/m0/s1

>  <InChIKey>
CJBJHOAVZSMMDJ-HEXNFIEUSA-N

>  <SMILES>
CC(C)C[N@@](C[C@H]([C@H](Cc1ccccc1)NC(=O)O[C@H]2CO[C@@H]3[C@H]2CCO3)O)S(=O)(=O)c4ccc(cc4)N

$$$$
