4HDF_G52_A_401
  RCSB PDB08012021553D
Coordinates from PDB:4HDF:A:401 Model:1 without hydrogens
 42 46  0  0  0  0            999 V2000
   17.3440  -25.0320  -20.1770   C 0  0  0  0  0  0  0  0  0  0  0  0
   16.6590  -24.1100  -20.9620   C 0  0  0  0  0  0  0  0  0  0  0  0
   15.6160  -23.3980  -20.3980   C 0  0  0  0  0  0  0  0  0  0  0  0
   15.2450  -23.5790  -19.0990   C 0  0  0  0  0  0  0  0  0  0  0  0
   15.8580  -24.5610  -18.3570   C 0  0  0  0  0  0  0  0  0  0  0  0
   16.9190  -25.2920  -18.8800   C 0  0  0  0  0  0  0  0  0  0  0  0
   13.8870  -22.6750  -18.4650   S 0  0  0  0  0  0  0  0  0  0  0  0
   12.9560  -22.3180  -19.5670   O 0  0  0  0  0  0  0  0  0  0  0  0
   13.3130  -23.3510  -17.2930   O 0  0  0  0  0  0  0  0  0  0  0  0
   14.5110  -21.2620  -17.9140   N 0  0  0  0  0  0  0  0  0  0  0  0
   15.5500  -21.3750  -16.9410   C 0  0  0  0  0  0  0  0  0  0  0  0
   15.4080  -20.3770  -15.7880   C 0  0  0  0  0  0  0  0  0  0  0  0
   14.0890  -20.5660  -15.0820   C 0  0  0  0  0  0  0  0  0  0  0  0
   16.5130  -20.6050  -14.7530   C 0  0  0  0  0  0  0  0  0  0  0  0
   14.6220  -20.1840  -18.8720   C 0  0  0  0  0  0  0  0  0  0  0  0
   13.7540  -18.9970  -18.4620   C 0  0  0  0  0  0  0  0  0  0  0  0
   14.2700  -17.8560  -19.1290   O 0  0  0  0  0  0  0  0  0  0  0  0
   12.2720  -19.2140  -18.7380   C 0  0  0  0  0  0  0  0  0  0  0  0
   11.4380  -18.2080  -18.1220   N 0  0  0  0  0  0  0  0  0  0  0  0
   10.6470  -18.3210  -17.0610   C 0  0  0  0  0  0  0  0  0  0  0  0
   10.5140  -19.3380  -16.3550   O 0  0  0  0  0  0  0  0  0  0  0  0
   10.0350  -17.1440  -16.7790   O 0  0  0  0  0  0  0  0  0  0  0  0
    9.0490  -17.1880  -15.7550   C 0  0  0  0  0  0  0  0  0  0  0  0
    9.2800  -15.9470  -14.8790   C 0  0  0  0  0  0  0  0  0  0  0  0
    8.6620  -14.8400  -15.5620   O 0  0  0  0  0  0  0  0  0  0  0  0
    7.6750  -15.3490  -16.4810   C 0  0  0  0  0  0  0  0  0  0  0  0
    8.0220  -15.0660  -17.8460   O 0  0  0  0  0  0  0  0  0  0  0  0
    7.9000  -16.2290  -18.6620   C 0  0  0  0  0  0  0  0  0  0  0  0
    7.4370  -17.3620  -17.7450   C 0  0  0  0  0  0  0  0  0  0  0  0
    7.6500  -16.8580  -16.3280   C 0  0  0  0  0  0  0  0  0  0  0  0
   11.8890  -19.2540  -20.2150   C 0  0  0  0  0  0  0  0  0  0  0  0
    9.5660  -18.6340  -20.9620   C 0  0  0  0  0  0  0  0  0  0  0  0
    8.2300  -18.9640  -21.0810   C 0  0  0  0  0  0  0  0  0  0  0  0
    7.7040  -20.1660  -20.6090   C 0  0  0  0  0  0  0  0  0  0  0  0
    8.5960  -21.1050  -20.1150   C 0  0  0  0  0  0  0  0  0  0  0  0
    9.9260  -20.8060  -20.0060   C 0  0  0  0  0  0  0  0  0  0  0  0
   10.4160  -19.5780  -20.4160   C 0  0  0  0  0  0  0  0  0  0  0  0
   18.3880  -25.6440  -20.7780   O 0  0  0  0  0  0  0  0  0  0  0  0
   19.0720  -26.5220  -19.8860   C 0  0  0  0  0  0  0  0  0  0  0  0
    6.8610  -16.0750  -19.6390   O 0  0  0  0  0  0  0  0  0  0  0  0
    5.6540  -16.3010  -18.8960   C 0  0  0  0  0  0  0  0  0  0  0  0
    5.9820  -17.5690  -18.1300   C 0  0  0  0  0  0  0  0  0  0  0  0
  2  1  2  0  0  0  0
 38  1  1  0  0  0  0
  1  6  1  0  0  0  0
  2  3  1  0  0  0  0
  3  4  2  0  0  0  0
  4  5  1  0  0  0  0
  4  7  1  0  0  0  0
  6  5  2  0  0  0  0
  8  7  2  0  0  0  0
  7  9  2  0  0  0  0
  7 10  1  0  0  0  0
 10 15  1  0  0  0  0
 10 11  1  0  0  0  0
 11 12  1  0  0  0  0
 13 12  1  0  0  0  0
 12 14  1  0  0  0  0
 15 16  1  0  0  0  0
 18 16  1  0  0  0  0
 16 17  1  0  0  0  0
 31 18  1  0  0  0  0
 18 19  1  0  0  0  0
 19 20  1  0  0  0  0
 21 20  2  0  0  0  0
 20 22  1  0  0  0  0
 22 23  1  0  0  0  0
 30 23  1  0  0  0  0
 23 24  1  0  0  0  0
 25 24  1  0  0  0  0
 26 25  1  0  0  0  0
 30 26  1  0  0  0  0
 27 26  1  0  0  0  0
 28 27  1  0  0  0  0
 40 28  1  0  0  0  0
 29 28  1  0  0  0  0
 42 29  1  0  0  0  0
 29 30  1  0  0  0  0
 37 31  1  0  0  0  0
 33 32  2  0  0  0  0
 32 37  1  0  0  0  0
 34 33  1  0  0  0  0
 34 35  2  0  0  0  0
 35 36  1  0  0  0  0
 36 37  2  0  0  0  0
 38 39  1  0  0  0  0
 41 40  1  0  0  0  0
 42 41  1  0  0  0  0
M  END
>  <InstanceId>
4HDF_G52_A_401

>  <ChemCompId>
G52

>  <PdbId>
4HDF

>  <ChainId>
A

>  <ResidueNumber>
401

>  <InsertionCode>


>  <Model>
1

>  <AltIds>


>  <MissingHeavyAtoms>
0

>  <ObservedFormula>
C30 N2 O9 S

>  <Name>
(3R,3aS,3bR,6aS,7aS)-octahydrodifuro[2,3-b:3',2'-d]furan-3-yl [(1S,2R)-1-benzyl-2-hydroxy-3-{[(4-methoxyphenyl)sulfonyl](2-methylpropyl)amino}propyl]carbamate

>  <SystematicName>


>  <Synonyms>


>  <Type>
NON-POLYMER

>  <Formula>
C30 H40 N2 O9 S

>  <MolecularWeight>
604.712

>  <ModifiedDate>
2011-06-04

>  <Parent>


>  <OneLetterCode>


>  <SubcomponentList>


>  <AmbiguousFlag>
N

>  <InChI>
InChI=1S/C30H40N2O9S/c1-19(2)16-32(42(35,36)22-11-9-21(37-3)10-12-22)17-25(33)24(15-20-7-5-4-6-8-20)31-30(34)40-26-18-39-29-27(26)23-13-14-38-28(23)41-29/h4-12,19,23-29,33H,13-18H2,1-3H3,(H,31,34)/t23-,24+,25-,26+,27+,28+,29+/m1/s1

>  <InChIKey>
QWMNYFXRFHGYGS-DDGGWZRMSA-N

>  <SMILES>
CC(C)C[N@@](C[C@H]([C@H](Cc1ccccc1)NC(=O)O[C@H]2CO[C@@H]3[C@H]2[C@H]4CCO[C@H]4O3)O)S(=O)(=O)c5ccc(cc5)OC

$$$$
