1W5W_BE4_A_1100
  RCSB PDB08012016163D
Coordinates from PDB:1W5W:A:1100 Model:1 without hydrogens
 52 57  0  0  0  0            999 V2000
   16.5820   21.9310    8.8040   C 0  0  0  0  0  0  0  0  0  0  0  0
   18.0150   21.6930    8.5450   C 0  0  0  0  0  0  0  0  0  0  0  0
   18.6650   20.4460    8.8960   C 0  0  0  0  0  0  0  0  0  0  0  0
   17.9000   19.3600    9.5300   C 0  0  0  0  0  0  0  0  0  0  0  0
   16.4570   19.5590    9.8060   C 0  0  0  0  0  0  0  0  0  0  0  0
   15.8100   20.8220    9.4490   C 0  0  0  0  0  0  0  0  0  0  0  0
    9.8880   23.7850    2.2390   C 0  0  0  0  0  0  0  0  0  0  0  0
    8.7840   22.8960    2.6600   C 0  0  0  0  0  0  0  0  0  0  0  0
    7.3800   23.4020    2.6250   C 0  0  0  0  0  0  0  0  0  0  0  0
    7.1210   24.8020    2.1630   C 0  0  0  0  0  0  0  0  0  0  0  0
    8.2690   25.6600    1.7500   C 0  0  0  0  0  0  0  0  0  0  0  0
    9.6040   25.1450    1.7960   C 0  0  0  0  0  0  0  0  0  0  0  0
   11.3380   23.3620    2.2490   C 0  0  0  0  0  0  0  0  0  0  0  0
   11.8420   23.0150    3.5620   O 0  0  0  0  0  0  0  0  0  0  0  0
   11.8890   24.1000    4.6260   C 0  0  0  0  0  0  0  0  0  0  0  0
   12.9460   23.8690    5.6740   C 0  0  0  0  0  0  0  0  0  0  0  0
   14.2490   23.6340    5.0210   C 0  0  0  0  0  0  0  0  0  0  0  0
   15.1920   22.8530    6.0190   C 0  0  0  0  0  0  0  0  0  0  0  0
   15.1570   21.3490    5.8340   C 0  0  0  0  0  0  0  0  0  0  0  0
   14.1050   20.7100    6.0550   O 0  0  0  0  0  0  0  0  0  0  0  0
   16.3030   20.7060    5.4450   N 0  0  0  0  0  0  0  0  0  0  0  0
   14.8980   23.1810    7.4420   O 0  0  0  0  0  0  0  0  0  0  0  0
   16.0160   23.2960    8.3780   C 0  0  0  0  0  0  0  0  0  0  0  0
   14.8000   24.8910    4.5700   O 0  0  0  0  0  0  0  0  0  0  0  0
   13.1150   25.0360    6.5790   O 0  0  0  0  0  0  0  0  0  0  0  0
   10.6680   24.2460    5.4690   C 0  0  0  0  0  0  0  0  0  0  0  0
   10.3060   23.2750    6.1790   O 0  0  0  0  0  0  0  0  0  0  0  0
    9.9890   25.4230    5.4150   N 0  0  0  0  0  0  0  0  0  0  0  0
    8.7800   25.6710    6.1740   C 0  0  0  0  0  0  0  0  0  0  0  0
    9.0860   26.4100    7.4320   C 0  0  0  0  0  0  0  0  0  0  0  0
    7.9520   27.2730    7.7780   C 0  0  0  0  0  0  0  0  0  0  0  0
   10.2930   26.3740    8.2900   C 0  0  0  0  0  0  0  0  0  0  0  0
   10.3370   27.2330    9.5150   C 0  0  0  0  0  0  0  0  0  0  0  0
    9.1820   28.0890    9.8330   C 0  0  0  0  0  0  0  0  0  0  0  0
    7.7220   26.6120    5.5360   C 0  0  0  0  0  0  0  0  0  0  0  0
    8.4330   27.6510    4.8380   O 0  0  0  0  0  0  0  0  0  0  0  0
    7.9800   28.1230    8.9790   C 0  0  0  0  0  0  0  0  0  0  0  0
    6.8910   27.1130    6.7550   C 0  0  0  0  0  0  0  0  0  0  0  0
   16.4110   19.2780    5.2440   C 0  0  0  0  0  0  0  0  0  0  0  0
   16.3130   18.8900    3.7700   C 0  0  0  0  0  0  0  0  0  0  0  0
   17.2530   17.8230    3.4810   C 0  0  0  0  0  0  0  0  0  0  0  0
   15.4530   19.4300    2.7050   C 0  0  0  0  0  0  0  0  0  0  0  0
   15.5650   18.8630    1.3240   C 0  0  0  0  0  0  0  0  0  0  0  0
   16.5300   17.7860    1.0740   C 0  0  0  0  0  0  0  0  0  0  0  0
   17.8180   18.7330    5.6140   C 0  0  0  0  0  0  0  0  0  0  0  0
   18.7870   19.7730    5.3210   O 0  0  0  0  0  0  0  0  0  0  0  0
   17.3850   17.2460    2.1300   C 0  0  0  0  0  0  0  0  0  0  0  0
   17.9840   17.4790    4.7430   C 0  0  0  0  0  0  0  0  0  0  0  0
    5.7710   25.3180    2.1170   F 0  0  0  0  0  0  0  0  0  0  0  0
   18.5370   18.1490    9.8660   F 0  0  0  0  0  0  0  0  0  0  0  0
   14.4250   21.0040    9.7140   F 0  0  0  0  0  0  0  0  0  0  0  0
    9.0560   21.6000    3.0860   F 0  0  0  0  0  0  0  0  0  0  0  0
  1  2  2  0  0  0  0
  1  6  1  0  0  0  0
  1 23  1  0  0  0  0
  2  3  1  0  0  0  0
  3  4  2  0  0  0  0
  4  5  1  0  0  0  0
  4 50  1  0  0  0  0
  5  6  2  0  0  0  0
  6 51  1  0  0  0  0
  7  8  2  0  0  0  0
  7 12  1  0  0  0  0
  7 13  1  0  0  0  0
  8  9  1  0  0  0  0
  8 52  1  0  0  0  0
  9 10  2  0  0  0  0
 10 11  1  0  0  0  0
 10 49  1  0  0  0  0
 11 12  2  0  0  0  0
 13 14  1  0  0  0  0
 14 15  1  0  0  0  0
 15 16  1  0  0  0  0
 15 26  1  0  0  0  0
 16 17  1  0  0  0  0
 16 25  1  0  0  0  0
 17 18  1  0  0  0  0
 17 24  1  0  0  0  0
 18 19  1  0  0  0  0
 18 22  1  0  0  0  0
 19 20  2  0  0  0  0
 19 21  1  0  0  0  0
 21 39  1  0  0  0  0
 22 23  1  0  0  0  0
 26 27  2  0  0  0  0
 26 28  1  0  0  0  0
 28 29  1  0  0  0  0
 29 30  1  0  0  0  0
 29 35  1  0  0  0  0
 30 31  2  0  0  0  0
 30 32  1  0  0  0  0
 31 37  1  0  0  0  0
 31 38  1  0  0  0  0
 32 33  2  0  0  0  0
 33 34  1  0  0  0  0
 34 37  2  0  0  0  0
 35 36  1  0  0  0  0
 35 38  1  0  0  0  0
 39 40  1  0  0  0  0
 39 45  1  0  0  0  0
 40 41  2  0  0  0  0
 40 42  1  0  0  0  0
 41 47  1  0  0  0  0
 41 48  1  0  0  0  0
 42 43  2  0  0  0  0
 43 44  1  0  0  0  0
 44 47  2  0  0  0  0
 45 46  1  0  0  0  0
 45 48  1  0  0  0  0
M  END
>  <InstanceId>
1W5W_BE4_A_1100

>  <ChemCompId>
BE4

>  <PdbId>
1W5W

>  <ChainId>
A

>  <ResidueNumber>
1100

>  <InsertionCode>


>  <Model>
1

>  <AltIds>


>  <MissingHeavyAtoms>
0

>  <ObservedFormula>
C38 N2 O8 F4

>  <Name>
(2R,3R,4R,5R)-2,5-BIS[(2,4-DIFLUOROBENZYL)OXY]-3,4-DIHYDROXY-N,N'-BIS[(1R,2S)-2-HYDROXY-2,3-DIHYDRO-1H-INDEN-1-YL]HEXAN EDIAMIDE

>  <SystematicName>
(2R,3R,4R,5R)-2,5-bis[(2,4-difluorophenyl)methoxy]-3,4-dihydroxy-N,N'-bis[(1S,2R)-2-hydroxy-2,3-dihydro-1H-inden-1-yl]hexanediamide

>  <Synonyms>
INHIBITOR BEA403

>  <Type>
NON-POLYMER

>  <Formula>
C38 H36 F4 N2 O8

>  <MolecularWeight>
724.695

>  <ModifiedDate>
2020-06-17

>  <Parent>


>  <OneLetterCode>


>  <SubcomponentList>


>  <AmbiguousFlag>
N

>  <InChI>
InChI=1S/C38H36F4N2O8/c39-23-11-9-21(27(41)15-23)17-51-35(37(49)43-31-25-7-3-1-5-19(25)13-29(31)45)33(47)34(48)36(52-18-22-10-12-24(40)16-28(22)42)38(50)44-32-26-8-4-2-6-20(26)14-30(32)46/h1-12,15-16,29-36,45-48H,13-14,17-18H2,(H,43,49)(H,44,50)/t29-,30-,31+,32+,33-,34-,35-,36-/m1/s1

>  <InChIKey>
YVNITSOLRPDTNX-JQFCFGFHSA-N

>  <SMILES>
c1ccc2c(c1)C[C@H]([C@H]2NC(=O)[C@@H]([C@@H]([C@H]([C@H](C(=O)N[C@H]3c4ccccc4C[C@H]3O)OCc5ccc(cc5F)F)O)O)OCc6ccc(cc6F)F)O

$$$$
