6FNJ_DWT_A_1001
  RCSB PDB08022004413D
Coordinates from PDB:6FNJ:A:1001 Model:1 without hydrogens
 37 41  0  0  0  0            999 V2000
    1.1180   12.2350   98.4740   F 0  0  0  0  0  0  0  0  0  0  0  0
    0.7580   12.2010   99.7020   C 0  0  0  0  0  0  0  0  0  0  0  0
   -0.0930   11.4890   99.8720   F 0  0  0  0  0  0  0  0  0  0  0  0
    0.5360   13.2400  100.1140   F 0  0  0  0  0  0  0  0  0  0  0  0
    1.8500   11.6660  100.4850   C 0  0  0  0  0  0  0  0  0  0  0  0
    1.8660   11.7790  101.8940   C 0  0  0  0  0  0  0  0  0  0  0  0
    2.9200   10.9930   99.8970   C 0  0  0  0  0  0  0  0  0  0  0  0
    3.9690   10.4660  100.6590   C 0  0  0  0  0  0  0  0  0  0  0  0
    3.9650   10.6000  102.0540   C 0  0  0  0  0  0  0  0  0  0  0  0
    2.9040   11.2390  102.6850   C 0  0  0  0  0  0  0  0  0  0  0  0
    2.9890   11.3550  104.0510   N 0  0  0  0  0  0  0  0  0  0  0  0
    1.9090   11.3790  104.8820   C 0  0  0  0  0  0  0  0  0  0  0  0
    0.7420   11.2980  104.5020   O 0  0  0  0  0  0  0  0  0  0  0  0
    2.1500   11.6330  106.2530   C 0  0  0  0  0  0  0  0  0  0  0  0
    1.0520   11.8530  107.0850   C 0  0  0  0  0  0  0  0  0  0  0  0
    3.4280   11.7300  106.8190   C 0  0  0  0  0  0  0  0  0  0  0  0
    3.5870   12.0260  108.1890   C 0  0  0  0  0  0  0  0  0  0  0  0
    2.4750   12.2410  109.0160   C 0  0  0  0  0  0  0  0  0  0  0  0
    2.6280   12.5390  110.4120   C 0  0  0  0  0  0  0  0  0  0  0  0
    1.2030   12.1450  108.4380   C 0  0  0  0  0  0  0  0  0  0  0  0
    0.1460   12.3660  109.2430   N 0  0  0  0  0  0  0  0  0  0  0  0
   -0.6430   11.4020  109.7740   C 0  0  0  0  0  0  0  0  0  0  0  0
   -1.8000   11.7980  110.3000   N 0  0  0  0  0  0  0  0  0  0  0  0
   -0.3210   10.0960  109.7760   C 0  0  0  0  0  0  0  0  0  0  0  0
    0.7000    9.3600  109.3430   C 0  0  0  0  0  0  0  0  0  0  0  0
    0.4470    8.0910  109.6500   N 0  0  0  0  0  0  0  0  0  0  0  0
    1.3170    6.9300  109.3590   C 0  0  0  0  0  0  0  0  0  0  0  0
   -0.6420    8.0060  110.2390   N 0  0  0  0  0  0  0  0  0  0  0  0
   -1.1650    9.2250  110.3400   C 0  0  0  0  0  0  0  0  0  0  0  0
   -2.3250    9.6290  110.8770   N 0  0  0  0  0  0  0  0  0  0  0  0
   -2.6410   10.9240  110.8570   C 0  0  0  0  0  0  0  0  0  0  0  0
   -3.8400   11.3720  111.3970   C 0  0  0  0  0  0  0  0  0  0  0  0
   -4.7040   10.4780  112.0280   C 0  0  0  0  0  0  0  0  0  0  0  0
   -5.9100   10.9590  112.5420   C 0  0  0  0  0  0  0  0  0  0  0  0
   -6.2530   12.3050  112.4040   C 0  0  0  0  0  0  0  0  0  0  0  0
   -5.3890   13.2020  111.7680   N 0  0  0  0  0  0  0  0  0  0  0  0
   -4.1890   12.7110  111.2530   C 0  0  0  0  0  0  0  0  0  0  0  0
 35 36  2  0  0  0  0
 35 34  1  0  0  0  0
 36 37  1  0  0  0  0
 34 33  2  0  0  0  0
 37 32  2  0  0  0  0
 33 32  1  0  0  0  0
 32 31  1  0  0  0  0
 23 31  1  0  0  0  0
 23 22  2  0  0  0  0
 31 30  2  0  0  0  0
 21 22  1  0  0  0  0
 21 20  1  0  0  0  0
 22 24  1  0  0  0  0
 30 29  1  0  0  0  0
 19 18  1  0  0  0  0
 20 18  2  0  0  0  0
 20 15  1  0  0  0  0
 18 17  1  0  0  0  0
 24 29  1  0  0  0  0
 24 25  2  0  0  0  0
 29 28  2  0  0  0  0
 15 14  2  0  0  0  0
 17 16  2  0  0  0  0
 28 26  1  0  0  0  0
 25 26  1  0  0  0  0
 14 16  1  0  0  0  0
 14 12  1  0  0  0  0
 13 12  2  0  0  0  0
  1  2  1  0  0  0  0
 26 27  1  0  0  0  0
 12 11  1  0  0  0  0
 11 10  1  0  0  0  0
  6 10  2  0  0  0  0
  6  5  1  0  0  0  0
  2  3  1  0  0  0  0
  2  4  1  0  0  0  0
  2  5  1  0  0  0  0
 10  9  1  0  0  0  0
  5  7  2  0  0  0  0
  9  8  2  0  0  0  0
  7  8  1  0  0  0  0
M  END
>  <InstanceId>
6FNJ_DWT_A_1001

>  <ChemCompId>
DWT

>  <PdbId>
6FNJ

>  <ChainId>
A

>  <ResidueNumber>
1001

>  <InsertionCode>


>  <Model>
1

>  <AltIds>


>  <MissingHeavyAtoms>
0

>  <ObservedFormula>
C26 N7 O F3

>  <Name>
4-methyl-3-[(2-methyl-6-pyridin-3-yl-pyrazolo[3,4-d]pyrimidin-4-yl)amino]-~{N}-[3-(trifluoromethyl)phenyl]benzamide

>  <SystematicName>
4-methyl-3-[(2-methyl-6-pyridin-3-yl-pyrazolo[3,4-d]pyrimidin-4-yl)amino]-~{N}-[3-(trifluoromethyl)phenyl]benzamide

>  <Synonyms>


>  <Type>
NON-POLYMER

>  <Formula>
C26 H20 F3 N7 O

>  <MolecularWeight>
503.479

>  <ModifiedDate>
2018-08-03

>  <Parent>


>  <OneLetterCode>


>  <SubcomponentList>


>  <AmbiguousFlag>
N

>  <InChI>
InChI=1S/C26H20F3N7O/c1-15-8-9-16(25(37)31-19-7-3-6-18(12-19)26(27,28)29)11-21(15)32-23-20-14-36(2)35-24(20)34-22(33-23)17-5-4-10-30-13-17/h3-14H,1-2H3,(H,31,37)(H,32,33,34,35)

>  <InChIKey>
MWKSRKSEWLRPBL-UHFFFAOYSA-N

>  <SMILES>
Cc1ccc(cc1Nc2c3cn(nc3nc(n2)c4cccnc4)C)C(=O)Nc5cccc(c5)C(F)(F)F

$$$$
