4B2I_LZ1_A_1351
  RCSB PDB08012021113D
Coordinates from PDB:4B2I:A:1351 Model:1 without hydrogens
  9 10  0  0  0  0            999 V2000
   19.1670    7.7250   -2.1120   C 0  0  0  0  0  0  0  0  0  0  0  0
   20.2260    7.0810   -2.7330   C 0  0  0  0  0  0  0  0  0  0  0  0
   20.3400    5.6980   -2.6950   C 0  0  0  0  0  0  0  0  0  0  0  0
   19.3700    4.9630   -2.0190   C 0  0  0  0  0  0  0  0  0  0  0  0
   18.3080    5.6070   -1.4090   C 0  0  0  0  0  0  0  0  0  0  0  0
   18.1940    6.9870   -1.4490   C 0  0  0  0  0  0  0  0  0  0  0  0
   19.3330    9.0270   -2.3290   N 0  0  0  0  0  0  0  0  0  0  0  0
   20.9670    8.0410   -3.2710   C 0  0  0  0  0  0  0  0  0  0  0  0
   20.3640    9.1980   -2.9960   N 0  0  0  0  0  0  0  0  0  0  0  0
  1  2  1  0  0  0  0
  1  6  2  0  0  0  0
  1  7  1  0  0  0  0
  2  3  2  0  0  0  0
  2  8  1  0  0  0  0
  3  4  1  0  0  0  0
  4  5  2  0  0  0  0
  5  6  1  0  0  0  0
  7  9  1  0  0  0  0
  8  9  2  0  0  0  0
M  END
>  <InstanceId>
4B2I_LZ1_A_1351

>  <ChemCompId>
LZ1

>  <PdbId>
4B2I

>  <ChainId>
A

>  <ResidueNumber>
1351

>  <InsertionCode>


>  <Model>
1

>  <AltIds>


>  <MissingHeavyAtoms>
0

>  <ObservedFormula>
C7 N2

>  <Name>
1H-indazole

>  <SystematicName>
1H-indazole

>  <Synonyms>


>  <Type>
non-polymer

>  <Formula>
C7 H6 N2

>  <MolecularWeight>
118.136

>  <ModifiedDate>
2011-06-04

>  <Parent>


>  <OneLetterCode>


>  <SubcomponentList>


>  <AmbiguousFlag>


>  <InChI>
InChI=1S/C7H6N2/c1-2-4-7-6(3-1)5-8-9-7/h1-5H,(H,8,9)

>  <InChIKey>
BAXOFTOLAUCFNW-UHFFFAOYSA-N

>  <SMILES>
c1ccc2c(c1)cn[nH]2

$$$$
