6DAR_G2J_A_401
  RCSB PDB08022004213D
Coordinates from PDB:6DAR:A:401 Model:1 without hydrogens
 30 34  0  0  0  0            999 V2000
   20.7250   27.5150    5.2660   O 0  0  0  0  0  0  0  0  0  0  0  0
   21.5680   28.3710    5.5450   C 0  0  0  0  0  0  0  0  0  0  0  0
   22.0240   29.2600    4.4140   C 0  0  0  0  0  0  0  0  0  0  0  0
   21.7100   30.6370    4.4080   C 0  0  0  0  0  0  0  0  0  0  0  0
   22.1220   31.4620    3.3460   C 0  0  0  0  0  0  0  0  0  0  0  0
   22.8220   30.9120    2.2590   C 0  0  0  0  0  0  0  0  0  0  0  0
   23.1280   29.5290    2.2280   C 0  0  0  0  0  0  0  0  0  0  0  0
   23.8070   28.9460    1.1800   O 0  0  0  0  0  0  0  0  0  0  0  0
   24.0560   27.5480    1.1580   C 0  0  0  0  0  0  0  0  0  0  0  0
   22.7320   28.7140    3.3160   C 0  0  0  0  0  0  0  0  0  0  0  0
   22.0440   28.5250    6.8220   N 0  0  0  0  0  0  0  0  0  0  0  0
   23.0570   29.5420    7.1670   C 0  0  0  0  0  0  0  0  0  0  0  0
   23.1860   29.9270    8.6290   C 0  0  0  0  0  0  0  0  0  0  0  0
   22.2820   30.9400    9.2920   C 0  0  0  0  0  0  0  0  0  0  0  0
   23.7180   31.2930    8.9970   C 0  0  0  0  0  0  0  0  0  0  0  0
   21.5980   27.6740    7.9400   C 0  0  0  0  0  0  0  0  0  0  0  0
   22.4170   26.3990    8.0150   C 0  0  0  0  0  0  0  0  0  0  0  0
   23.4360   26.2800    8.9770   C 0  0  0  0  0  0  0  0  0  0  0  0
   24.2100   25.1100    9.0360   C 0  0  0  0  0  0  0  0  0  0  0  0
   23.9730   24.0550    8.1280   C 0  0  0  0  0  0  0  0  0  0  0  0
   22.9660   24.1600    7.1430   C 0  0  0  0  0  0  0  0  0  0  0  0
   22.7720   23.0920    6.1360   C 0  0  0  0  0  0  0  0  0  0  0  0
   23.7610   22.2940    5.6050   C 0  0  0  0  0  0  0  0  0  0  0  0
   23.1190   21.4990    4.6950   N 0  0  0  0  0  0  0  0  0  0  0  0
   23.5030   20.4380    3.7780   C 0  0  0  0  0  0  0  0  0  0  0  0
   22.1560   20.0390    3.1050   C 0  0  0  0  0  0  0  0  0  0  0  0
   21.0650   20.9960    3.6520   C 0  0  0  0  0  0  0  0  0  0  0  0
   21.8340   21.7870    4.6350   C 0  0  0  0  0  0  0  0  0  0  0  0
   21.5830   22.7660    5.5130   N 0  0  0  0  0  0  0  0  0  0  0  0
   22.2000   25.3500    7.0930   C 0  0  0  0  0  0  0  0  0  0  0  0
  9  8  1  0  0  0  0
  8  7  1  0  0  0  0
  7  6  2  0  0  0  0
  7 10  1  0  0  0  0
  6  5  1  0  0  0  0
 26 27  1  0  0  0  0
 26 25  1  0  0  0  0
 10  3  2  0  0  0  0
  5  4  2  0  0  0  0
 27 28  1  0  0  0  0
 25 24  1  0  0  0  0
  4  3  1  0  0  0  0
  3  2  1  0  0  0  0
 28 24  1  0  0  0  0
 28 29  2  0  0  0  0
 24 23  1  0  0  0  0
  1  2  2  0  0  0  0
 29 22  1  0  0  0  0
  2 11  1  0  0  0  0
 23 22  2  0  0  0  0
 22 21  1  0  0  0  0
 11 12  1  0  0  0  0
 11 16  1  0  0  0  0
 30 21  2  0  0  0  0
 30 17  1  0  0  0  0
 21 20  1  0  0  0  0
 12 13  1  0  0  0  0
 16 17  1  0  0  0  0
 17 18  2  0  0  0  0
 20 19  2  0  0  0  0
 13 15  1  0  0  0  0
 13 14  1  0  0  0  0
 18 19  1  0  0  0  0
 15 14  1  0  0  0  0
M  END
>  <InstanceId>
6DAR_G2J_A_401

>  <ChemCompId>
G2J

>  <PdbId>
6DAR

>  <ChainId>
A

>  <ResidueNumber>
401

>  <InsertionCode>


>  <Model>
1

>  <AltIds>


>  <MissingHeavyAtoms>
0

>  <ObservedFormula>
C25 N3 O2

>  <Name>
N-(cyclopropylmethyl)-N-{[3-(6,7-dihydro-5H-pyrrolo[1,2-a]imidazol-2-yl)phenyl]methyl}-3-methoxybenzamide

>  <SystematicName>
~{N}-(cyclopropylmethyl)-~{N}-[[3-(6,7-dihydro-5~{H}-pyrrolo[1,2-a]imidazol-2-yl)phenyl]methyl]-3-methoxy-benzamide

>  <Synonyms>


>  <Type>
NON-POLYMER

>  <Formula>
C25 H27 N3 O2

>  <MolecularWeight>
401.501

>  <ModifiedDate>
2018-08-31

>  <Parent>


>  <OneLetterCode>


>  <SubcomponentList>


>  <AmbiguousFlag>
N

>  <InChI>
InChI=1S/C25H27N3O2/c1-30-22-8-3-7-21(14-22)25(29)28(15-18-10-11-18)16-19-5-2-6-20(13-19)23-17-27-12-4-9-24(27)26-23/h2-3,5-8,13-14,17-18H,4,9-12,15-16H2,1H3

>  <InChIKey>
UVWAIBUOXKRXQY-UHFFFAOYSA-N

>  <SMILES>
COc1cccc(c1)C(=O)N(Cc2cccc(c2)c3cn4c(n3)CCC4)CC5CC5

$$$$
