5EY4_DTP_A_501
  RCSB PDB08022001173D
Coordinates from PDB:5EY4:A:501 Model:1 without hydrogens
 30 32  0  0  0  0            999 V2000
   17.9770  -17.1990   -3.4900   P 0  0  0  0  0  0  0  0  0  0  0  0
   17.8170  -17.6120   -4.9140   O 0  0  0  0  0  0  0  0  0  0  0  0
   19.0690  -16.1690   -3.4240   O 0  0  0  0  0  0  0  0  0  0  0  0
   18.3720  -18.3190   -2.6220   O 0  0  0  0  0  0  0  0  0  0  0  0
   16.0950  -15.1150   -2.8680   P 0  0  0  0  0  0  0  0  0  0  0  0
   16.2980  -14.4040   -4.1570   O 0  0  0  0  0  0  0  0  0  0  0  0
   14.6880  -14.9800   -2.4300   O 0  0  0  0  0  0  0  0  0  0  0  0
   16.5700  -16.6190   -3.0020   O 0  0  0  0  0  0  0  0  0  0  0  0
   16.9240  -13.3810   -0.7060   P 0  0  0  0  0  0  0  0  0  0  0  0
   16.5060  -12.0960   -1.3480   O 0  0  0  0  0  0  0  0  0  0  0  0
   18.2900  -13.2360   -0.0610   O 0  0  0  0  0  0  0  0  0  0  0  0
   17.0640  -14.5390   -1.7610   O 0  0  0  0  0  0  0  0  0  0  0  0
   15.7950  -13.7120    0.4160   O 0  0  0  0  0  0  0  0  0  0  0  0
   15.7470  -15.0290    1.0140   C 0  0  0  0  0  0  0  0  0  0  0  0
   14.6070  -15.0960    2.0140   C 0  0  0  0  0  0  0  0  0  0  0  0
   14.7250  -14.0630    2.9970   O 0  0  0  0  0  0  0  0  0  0  0  0
   13.2210  -14.9150    1.3910   C 0  0  0  0  0  0  0  0  0  0  0  0
   12.3600  -15.7470    2.1090   O 0  0  0  0  0  0  0  0  0  0  0  0
   12.8490  -13.4470    1.6730   C 0  0  0  0  0  0  0  0  0  0  0  0
   13.5620  -13.2400    3.0270   C 0  0  0  0  0  0  0  0  0  0  0  0
   14.0430  -11.8820    3.3080   N 0  0  0  0  0  0  0  0  0  0  0  0
   15.0200  -11.2490    2.6530   C 0  0  0  0  0  0  0  0  0  0  0  0
   15.2550  -10.0730    3.2060   N 0  0  0  0  0  0  0  0  0  0  0  0
   14.4400   -9.9540    4.2490   C 0  0  0  0  0  0  0  0  0  0  0  0
   14.2130   -8.9720    5.2100   C 0  0  0  0  0  0  0  0  0  0  0  0
   14.9190   -7.8020    5.2010   N 0  0  0  0  0  0  0  0  0  0  0  0
   13.2820   -9.1800    6.1360   N 0  0  0  0  0  0  0  0  0  0  0  0
   12.5740  -10.3160    6.1210   C 0  0  0  0  0  0  0  0  0  0  0  0
   12.7460  -11.2960    5.2460   N 0  0  0  0  0  0  0  0  0  0  0  0
   13.6700  -11.1110    4.3100   C 0  0  0  0  0  0  0  0  0  0  0  0
  1  2  2  0  0  0  0
  1  3  1  0  0  0  0
  1  4  1  0  0  0  0
  1  8  1  0  0  0  0
  5  6  2  0  0  0  0
  5  7  1  0  0  0  0
  5  8  1  0  0  0  0
  5 12  1  0  0  0  0
  9 10  2  0  0  0  0
  9 11  1  0  0  0  0
  9 12  1  0  0  0  0
  9 13  1  0  0  0  0
 13 14  1  0  0  0  0
 14 15  1  0  0  0  0
 15 16  1  0  0  0  0
 15 17  1  0  0  0  0
 16 20  1  0  0  0  0
 17 18  1  0  0  0  0
 17 19  1  0  0  0  0
 19 20  1  0  0  0  0
 20 21  1  0  0  0  0
 21 22  1  0  0  0  0
 21 30  1  0  0  0  0
 22 23  2  0  0  0  0
 23 24  1  0  0  0  0
 24 25  1  0  0  0  0
 24 30  2  0  0  0  0
 25 26  1  0  0  0  0
 25 27  2  0  0  0  0
 27 28  1  0  0  0  0
 28 29  2  0  0  0  0
 29 30  1  0  0  0  0
M  END
>  <InstanceId>
5EY4_DTP_A_501

>  <ChemCompId>
DTP

>  <PdbId>
5EY4

>  <ChainId>
A

>  <ResidueNumber>
501

>  <InsertionCode>


>  <Model>
1

>  <AltIds>


>  <MissingHeavyAtoms>
0

>  <ObservedFormula>
C10 N5 O12 P3

>  <Name>
2'-DEOXYADENOSINE 5'-TRIPHOSPHATE

>  <SystematicName>
[[(2R,3S,5R)-5-(6-aminopurin-9-yl)-3-hydroxy-oxolan-2-yl]methoxy-hydroxy-phosphoryl] phosphono hydrogen phosphate

>  <Synonyms>


>  <Type>
NON-POLYMER

>  <Formula>
C10 H16 N5 O12 P3

>  <MolecularWeight>
491.182

>  <ModifiedDate>
2011-06-04

>  <Parent>


>  <OneLetterCode>


>  <SubcomponentList>


>  <AmbiguousFlag>
N

>  <InChI>
InChI=1S/C10H16N5O12P3/c11-9-8-10(13-3-12-9)15(4-14-8)7-1-5(16)6(25-7)2-24-29(20,21)27-30(22,23)26-28(17,18)19/h3-7,16H,1-2H2,(H,20,21)(H,22,23)(H2,11,12,13)(H2,17,18,19)/t5-,6+,7+/m0/s1

>  <InChIKey>
SUYVUBYJARFZHO-RRKCRQDMSA-N

>  <SMILES>
c1nc(c2c(n1)n(cn2)[C@H]3C[C@@H]([C@H](O3)CO[P@](=O)(O)O[P@@](=O)(O)OP(=O)(O)O)O)N

$$$$
