6H2Z_FKE_A_302
  RCSB PDB08022004553D
Coordinates from PDB:6H2Z:A:302 Model:1 without hydrogens
 24 26  0  0  0  0            999 V2000
   -5.1660    2.3790   15.5540   C 0  0  0  0  0  0  0  0  0  0  0  0
   -6.0170    3.3990   15.1590   C 0  0  0  0  0  0  0  0  0  0  0  0
   -5.5480    4.3850   14.3090   C 0  0  0  0  0  0  0  0  0  0  0  0
   -4.2370    4.3630   13.8470   C 0  0  0  0  0  0  0  0  0  0  0  0
   -3.3960    3.3360   14.2590   C 0  0  0  0  0  0  0  0  0  0  0  0
   -3.8540    2.3470   15.1100   C 0  0  0  0  0  0  0  0  0  0  0  0
   -3.7460    5.4080   12.8960   C 0  0  0  0  0  0  0  0  0  0  0  0
   -1.8540    6.4810   11.7970   C 0  0  0  0  0  0  0  0  0  0  0  0
   -1.8200    7.9650   12.1220   C 0  0  0  0  0  0  0  0  0  0  0  0
   -1.0440    8.2310   13.4120   C 0  0  0  0  0  0  0  0  0  0  0  0
   -1.6850    7.4030   14.5240   C 0  0  0  0  0  0  0  0  0  0  0  0
   -1.7180    5.9290   14.1600   C 0  0  0  0  0  0  0  0  0  0  0  0
   -1.0340    9.7160   13.7620   C 0  0  0  0  0  0  0  0  0  0  0  0
   -1.9680   10.5880   13.2140   C 0  0  0  0  0  0  0  0  0  0  0  0
   -1.9240   11.9440   13.4910   C 0  0  0  0  0  0  0  0  0  0  0  0
   -0.9480   12.4510   14.3220   C 0  0  0  0  0  0  0  0  0  0  0  0
   -0.0170   11.6000   14.8800   C 0  0  0  0  0  0  0  0  0  0  0  0
   -0.0610   10.2430   14.6020   C 0  0  0  0  0  0  0  0  0  0  0  0
   -5.7770    1.0710   16.5720   S 0  0  0  0  0  0  0  0  0  0  0  0
   -5.2030    1.2450   17.8730   O 0  0  0  0  0  0  0  0  0  0  0  0
   -7.2040    1.0640   16.4530   O 0  0  0  0  0  0  0  0  0  0  0  0
   -4.5250    5.9340   12.1200   O 0  0  0  0  0  0  0  0  0  0  0  0
   -2.4350    5.6970   12.8980   N 0  0  0  0  0  0  0  0  0  0  0  0
   -5.2380   -0.3210   15.9910   N 0  0  0  0  0  0  0  0  0  0  0  0
  8  9  1  0  0  0  0
  8 23  1  0  0  0  0
 22  7  2  0  0  0  0
  9 10  1  0  0  0  0
  7 23  1  0  0  0  0
  7  4  1  0  0  0  0
 23 12  1  0  0  0  0
 14 15  2  0  0  0  0
 14 13  1  0  0  0  0
 10 13  1  0  0  0  0
 10 11  1  0  0  0  0
 15 16  1  0  0  0  0
 13 18  2  0  0  0  0
  4  5  2  0  0  0  0
  4  3  1  0  0  0  0
 12 11  1  0  0  0  0
  5  6  1  0  0  0  0
  3  2  2  0  0  0  0
 16 17  2  0  0  0  0
 18 17  1  0  0  0  0
  6  1  2  0  0  0  0
  2  1  1  0  0  0  0
  1 19  1  0  0  0  0
 24 19  1  0  0  0  0
 21 19  2  0  0  0  0
 19 20  2  0  0  0  0
M  END
>  <InstanceId>
6H2Z_FKE_A_302

>  <ChemCompId>
FKE

>  <PdbId>
6H2Z

>  <ChainId>
A

>  <ResidueNumber>
302

>  <InsertionCode>


>  <Model>
1

>  <AltIds>


>  <MissingHeavyAtoms>
0

>  <ObservedFormula>
C18 N2 O3 S

>  <Name>
4-(4-phenylpiperidin-1-yl)carbonylbenzenesulfonamide

>  <SystematicName>
4-(4-phenylpiperidin-1-yl)carbonylbenzenesulfonamide

>  <Synonyms>


>  <Type>
NON-POLYMER

>  <Formula>
C18 H20 N2 O3 S

>  <MolecularWeight>
344.428

>  <ModifiedDate>
2018-12-14

>  <Parent>


>  <OneLetterCode>


>  <SubcomponentList>


>  <AmbiguousFlag>
N

>  <InChI>
InChI=1S/C18H20N2O3S/c19-24(22,23)17-8-6-16(7-9-17)18(21)20-12-10-15(11-13-20)14-4-2-1-3-5-14/h1-9,15H,10-13H2,(H2,19,22,23)

>  <InChIKey>
JYNGEJUBPGKEKV-UHFFFAOYSA-N

>  <SMILES>
c1ccc(cc1)C2CCN(CC2)C(=O)c3ccc(cc3)S(=O)(=O)N

$$$$
