4MR6_1K0_A_505
  RCSB PDB08012022323D
Coordinates from PDB:4MR6:A:505 Model:1 without hydrogens
 27 29  0  0  0  0            999 V2000
   -7.5970   45.7380   38.6640   O 0  0  0  0  0  0  0  0  0  0  0  0
   -8.3790   46.9340   38.7580   C 0  0  0  0  0  0  0  0  0  0  0  0
   -7.5560   44.8380   39.7210   C 0  0  0  0  0  0  0  0  0  0  0  0
   -6.7870   43.7010   39.6000   C 0  0  0  0  0  0  0  0  0  0  0  0
   -6.6870   42.8180   40.7080   C 0  0  0  0  0  0  0  0  0  0  0  0
   -8.1000   42.6380   44.1230   N 0  0  0  0  0  0  0  0  0  0  0  0
   -5.4150   41.2530   39.3210   C 0  0  0  0  0  0  0  0  0  0  0  0
   -5.9360   41.7010   40.6110   O 0  0  0  0  0  0  0  0  0  0  0  0
   -7.3830   43.1060   41.8930   C 0  0  0  0  0  0  0  0  0  0  0  0
  -11.6250   45.0390   48.9500   O 0  0  0  0  0  0  0  0  0  0  0  0
   -8.9760   44.5320   43.0780   N 0  0  0  0  0  0  0  0  0  0  0  0
   -7.2840   42.2630   43.0750   C 0  0  0  0  0  0  0  0  0  0  0  0
   -8.8960   43.7270   44.0950   C 0  0  0  0  0  0  0  0  0  0  0  0
  -12.8400   44.6750   51.3310   O 0  0  0  0  0  0  0  0  0  0  0  0
   -6.5360   41.3030   43.2840   O 0  0  0  0  0  0  0  0  0  0  0  0
   -9.6670   44.0170   45.3480   C 0  0  0  0  0  0  0  0  0  0  0  0
   -9.8750   43.0640   46.3510   C 0  0  0  0  0  0  0  0  0  0  0  0
  -10.5510   43.3820   47.5480   C 0  0  0  0  0  0  0  0  0  0  0  0
  -10.6660   42.3180   48.6060   C 0  0  0  0  0  0  0  0  0  0  0  0
  -11.0100   44.6780   47.7190   C 0  0  0  0  0  0  0  0  0  0  0  0
  -12.9430   44.6260   48.9530   C 0  0  0  0  0  0  0  0  0  0  0  0
  -13.5370   45.2960   50.2470   C 0  0  0  0  0  0  0  0  0  0  0  0
  -10.8160   45.6350   46.7450   C 0  0  0  0  0  0  0  0  0  0  0  0
  -11.2540   47.0750   46.9670   C 0  0  0  0  0  0  0  0  0  0  0  0
  -10.1450   45.3170   45.5490   C 0  0  0  0  0  0  0  0  0  0  0  0
   -8.1970   44.2640   41.9580   C 0  0  0  0  0  0  0  0  0  0  0  0
   -8.2790   45.1540   40.8750   C 0  0  0  0  0  0  0  0  0  0  0  0
  7  8  1  0  0  0  0
  8  5  1  0  0  0  0
  4  5  2  0  0  0  0
  4  3  1  0  0  0  0
  1  3  1  0  0  0  0
  1  2  1  0  0  0  0
  5  9  1  0  0  0  0
  3 27  2  0  0  0  0
  9 26  2  0  0  0  0
  9 12  1  0  0  0  0
 27 26  1  0  0  0  0
 15 12  2  0  0  0  0
 26 11  1  0  0  0  0
 12  6  1  0  0  0  0
 11 13  2  0  0  0  0
  6 13  1  0  0  0  0
 13 16  1  0  0  0  0
 16 17  2  0  0  0  0
 16 25  1  0  0  0  0
 17 18  1  0  0  0  0
 25 23  2  0  0  0  0
 18 19  1  0  0  0  0
 18 20  2  0  0  0  0
 23 20  1  0  0  0  0
 23 24  1  0  0  0  0
 20 10  1  0  0  0  0
 10 21  1  0  0  0  0
 21 22  1  0  0  0  0
 14 22  1  0  0  0  0
M  END
>  <InstanceId>
4MR6_1K0_A_505

>  <ChemCompId>
1K0

>  <PdbId>
4MR6

>  <ChainId>
A

>  <ResidueNumber>
505

>  <InsertionCode>


>  <Model>
1

>  <AltIds>


>  <MissingHeavyAtoms>
0

>  <ObservedFormula>
C20 N2 O5

>  <Name>
2-[4-(2-hydroxyethoxy)-3,5-dimethylphenyl]-5,7-dimethoxyquinazolin-4(3H)-one

>  <SystematicName>
2-[4-(2-hydroxyethyloxy)-3,5-dimethyl-phenyl]-5,7-dimethoxy-3H-quinazolin-4-one

>  <Synonyms>


>  <Type>
NON-POLYMER

>  <Formula>
C20 H22 N2 O5

>  <MolecularWeight>
370.399

>  <ModifiedDate>
2013-11-22

>  <Parent>


>  <OneLetterCode>


>  <SubcomponentList>


>  <AmbiguousFlag>
N

>  <InChI>
InChI=1S/C20H22N2O5/c1-11-7-13(8-12(2)18(11)27-6-5-23)19-21-15-9-14(25-3)10-16(26-4)17(15)20(24)22-19/h7-10,23H,5-6H2,1-4H3,(H,21,22,24)

>  <InChIKey>
NETXMUIMUZJUTB-UHFFFAOYSA-N

>  <SMILES>
Cc1cc(cc(c1OCCO)C)C2=Nc3cc(cc(c3C(=O)N2)OC)OC

$$$$
