6D5E_FVG_B_2001
  RCSB PDB08022004203D
Coordinates from PDB:6D5E:B:2001 Model:1 without hydrogens
 33 37  0  0  0  0            999 V2000
   36.3000   28.0970   23.5430   N 0  0  0  0  0  0  0  0  0  0  0  0
   37.9900   26.2570   25.0620   N 0  0  0  0  0  0  0  0  0  0  0  0
   32.9910   28.8510   22.0830   C 0  0  0  0  0  0  0  0  0  0  0  0
   35.4500   28.1530   22.5110   C 0  0  0  0  0  0  0  0  0  0  0  0
   35.5900   28.6710   24.6220   C 0  0  0  0  0  0  0  0  0  0  0  0
   35.9630   28.8250   25.9640   C 0  0  0  0  0  0  0  0  0  0  0  0
   34.9960   29.3760   26.8280   C 0  0  0  0  0  0  0  0  0  0  0  0
   33.3520   29.6400   25.0410   C 0  0  0  0  0  0  0  0  0  0  0  0
   39.1360   28.5870   27.8830   C 0  0  0  0  0  0  0  0  0  0  0  0
   38.5160   28.7050   25.5500   C 0  0  0  0  0  0  0  0  0  0  0  0
   36.6880   26.5250   21.1890   C 0  0  0  0  0  0  0  0  0  0  0  0
   35.7450   28.4990   20.0760   C 0  0  0  0  0  0  0  0  0  0  0  0
   31.9440   30.0870   20.2370   C 0  0  0  0  0  0  0  0  0  0  0  0
   31.6770   31.2490   19.5250   C 0  0  0  0  0  0  0  0  0  0  0  0
   32.3320   32.4260   19.9080   C 0  0  0  0  0  0  0  0  0  0  0  0
   34.2250   28.7240   22.8300   N 0  0  0  0  0  0  0  0  0  0  0  0
   33.8520   33.7780   21.3460   C 0  0  0  0  0  0  0  0  0  0  0  0
   33.2120   32.4840   20.9670   C 0  0  0  0  0  0  0  0  0  0  0  0
   34.3140   29.0700   24.1970   C 0  0  0  0  0  0  0  0  0  0  0  0
   37.5920   28.5750   27.8520   C 0  0  0  0  0  0  0  0  0  0  0  0
   39.5170   29.2700   26.5720   C 0  0  0  0  0  0  0  0  0  0  0  0
   39.0310   27.3320   25.0390   C 0  0  0  0  0  0  0  0  0  0  0  0
   36.3710   25.7080   19.9200   C 0  0  0  0  0  0  0  0  0  0  0  0
   35.5010   27.6790   18.7980   C 0  0  0  0  0  0  0  0  0  0  0  0
   33.4740   31.3250   21.6710   C 0  0  0  0  0  0  0  0  0  0  0  0
   30.7010   31.2870   18.3960   C 0  0  0  0  0  0  0  0  0  0  0  0
   32.8330   30.1330   21.3070   C 0  0  0  0  0  0  0  0  0  0  0  0
   33.7370   29.7490   26.3460   C 0  0  0  0  0  0  0  0  0  0  0  0
   32.0890   33.5200   19.2020   F 0  0  0  0  0  0  0  0  0  0  0  0
   37.2760   28.3750   26.3880   N 0  0  0  0  0  0  0  0  0  0  0  0
   35.7370   27.6500   21.2590   N 0  0  0  0  0  0  0  0  0  0  0  0
   36.4640   26.5720   18.7270   N 0  0  0  0  0  0  0  0  0  0  0  0
   32.5010   30.3280   27.4720  Cl 0  0  0  0  0  0  0  0  0  0  0  0
 26 14  1  0  0  0  0
 32 24  1  0  0  0  0
 32 23  1  0  0  0  0
 24 12  1  0  0  0  0
 29 15  1  0  0  0  0
 14 15  2  0  0  0  0
 14 13  1  0  0  0  0
 15 18  1  0  0  0  0
 23 11  1  0  0  0  0
 12 31  1  0  0  0  0
 13 27  2  0  0  0  0
 18 17  1  0  0  0  0
 18 25  2  0  0  0  0
 11 31  1  0  0  0  0
 31  4  1  0  0  0  0
 27 25  1  0  0  0  0
 27  3  1  0  0  0  0
  3 16  1  0  0  0  0
  4 16  1  0  0  0  0
  4  1  2  0  0  0  0
 16 19  1  0  0  0  0
  1  5  1  0  0  0  0
 19  5  2  0  0  0  0
 19  8  1  0  0  0  0
  5  6  1  0  0  0  0
 22  2  1  0  0  0  0
 22 10  1  0  0  0  0
  8 28  2  0  0  0  0
 10 30  1  0  0  0  0
 10 21  1  0  0  0  0
  6 30  1  0  0  0  0
  6  7  2  0  0  0  0
 28  7  1  0  0  0  0
 28 33  1  0  0  0  0
 30 20  1  0  0  0  0
 21  9  1  0  0  0  0
 20  9  1  0  0  0  0
M  END
>  <InstanceId>
6D5E_FVG_B_2001

>  <ChemCompId>
FVG

>  <PdbId>
6D5E

>  <ChainId>
B

>  <ResidueNumber>
2001

>  <InsertionCode>


>  <Model>
1

>  <AltIds>


>  <MissingHeavyAtoms>
0

>  <ObservedFormula>
C25 N6 F Cl

>  <Name>
1-[(2S)-1-{6-chloro-1-[(4-fluoro-3,5-dimethylphenyl)methyl]-2-(piperazin-1-yl)-1H-benzimidazol-4-yl}pyrrolidin-2-yl]methanamine

>  <SystematicName>
[(2~{S})-1-[6-chloranyl-1-[(4-fluoranyl-3,5-dimethyl-phenyl)methyl]-2-piperazin-1-yl-benzimidazol-4-yl]pyrrolidin-2-yl]methanamine

>  <Synonyms>


>  <Type>
NON-POLYMER

>  <Formula>
C25 H32 Cl F N6

>  <MolecularWeight>
471.013

>  <ModifiedDate>
2018-09-14

>  <Parent>


>  <OneLetterCode>


>  <SubcomponentList>


>  <AmbiguousFlag>
N

>  <InChI>
InChI=1S/C25H32ClFN6/c1-16-10-18(11-17(2)23(16)27)15-33-22-13-19(26)12-21(32-7-3-4-20(32)14-28)24(22)30-25(33)31-8-5-29-6-9-31/h10-13,20,29H,3-9,14-15,28H2,1-2H3/t20-/m0/s1

>  <InChIKey>
CAPZSPOPEHSYOZ-FQEVSTJZSA-N

>  <SMILES>
Cc1cc(cc(c1F)C)Cn2c3cc(cc(c3nc2N4CCNCC4)N5CCC[C@H]5CN)Cl

$$$$
