4A95_9MT_A_1000
  RCSB PDB08012021053D
Coordinates from PDB:4A95:A:1000 Model:1 without hydrogens
 22 23  0  0  0  0            999 V2000
   20.2020   43.9940   62.3900   N 0  0  0  0  0  0  0  0  0  0  0  0
   21.2520   44.4240   62.7060   C 0  0  0  0  0  0  0  0  0  0  0  0
   22.5770   44.8910   63.1320   C 0  0  0  0  0  0  0  0  0  0  0  0
   23.3900   45.2490   61.8820   C 0  0  0  0  0  0  0  0  0  0  0  0
   22.7660   46.6960   61.0630   S 0  0  0  0  0  0  0  0  0  0  0  0
   22.6820   47.9280   62.2940   C 0  0  0  0  0  0  0  0  0  0  0  0
   23.8070   48.3070   63.0210   C 0  0  0  0  0  0  0  0  0  0  0  0
   25.0760   47.7990   62.6560   C 0  0  0  0  0  0  0  0  0  0  0  0
   26.1620   48.2420   63.3960   C 0  0  0  0  0  0  0  0  0  0  0  0
   27.4280   47.7520   63.0860   O 0  0  0  0  0  0  0  0  0  0  0  0
   27.6070   47.0610   61.8120   C 0  0  0  0  0  0  0  0  0  0  0  0
   25.9690   49.0960   64.4850   C 0  0  0  0  0  0  0  0  0  0  0  0
   24.7430   49.6430   64.8330   C 0  0  0  0  0  0  0  0  0  0  0  0
   23.6490   49.1810   64.0880   C 0  0  0  0  0  0  0  0  0  0  0  0
   22.4390   49.6670   64.4570   N 0  0  0  0  0  0  0  0  0  0  0  0
   21.3210   49.3590   63.7740   C 0  0  0  0  0  0  0  0  0  0  0  0
   20.0350   50.0070   64.2950   C 0  0  0  0  0  0  0  0  0  0  0  0
   21.4430   48.4510   62.6850   C 0  0  0  0  0  0  0  0  0  0  0  0
   20.2980   47.9820   61.7960   C 0  0  0  0  0  0  0  0  0  0  0  0
   18.9150   47.8120   62.3180   C 0  0  0  0  0  0  0  0  0  0  0  0
   17.8540   48.0460   61.2530   C 0  0  0  0  0  0  0  0  0  0  0  0
   17.1470   49.3710   61.4630   C 0  0  0  0  0  0  0  0  0  0  0  0
  1  2  3  0  0  0  0
  2  3  1  0  0  0  0
  3  4  1  0  0  0  0
  4  5  1  0  0  0  0
  5  6  1  0  0  0  0
  6  7  1  0  0  0  0
  6 18  2  0  0  0  0
  7  8  1  0  0  0  0
  7 14  2  0  0  0  0
  8  9  2  0  0  0  0
  9 10  1  0  0  0  0
  9 12  1  0  0  0  0
 10 11  1  0  0  0  0
 12 13  2  0  0  0  0
 13 14  1  0  0  0  0
 14 15  1  0  0  0  0
 15 16  2  0  0  0  0
 16 17  1  0  0  0  0
 16 18  1  0  0  0  0
 18 19  1  0  0  0  0
 19 20  1  0  0  0  0
 20 21  1  0  0  0  0
 21 22  1  0  0  0  0
M  END
>  <InstanceId>
4A95_9MT_A_1000

>  <ChemCompId>
9MT

>  <PdbId>
4A95

>  <ChainId>
A

>  <ResidueNumber>
1000

>  <InsertionCode>


>  <Model>
1

>  <AltIds>


>  <MissingHeavyAtoms>
0

>  <ObservedFormula>
C18 N2 O S

>  <Name>
3-(3-BUTYL-6-METHOXY-2-METHYL-QUINOLIN-4-YL)SULFANYLPROPANENITRILE

>  <SystematicName>
3-(3-butyl-6-methoxy-2-methyl-quinolin-4-yl)sulfanylpropanenitrile

>  <Synonyms>


>  <Type>
NON-POLYMER

>  <Formula>
C18 H22 N2 O S

>  <MolecularWeight>
314.445

>  <ModifiedDate>
2014-09-05

>  <Parent>


>  <OneLetterCode>


>  <SubcomponentList>


>  <AmbiguousFlag>
N

>  <InChI>
InChI=1S/C18H22N2OS/c1-4-5-7-15-13(2)20-17-9-8-14(21-3)12-16(17)18(15)22-11-6-10-19/h8-9,12H,4-7,11H2,1-3H3

>  <InChIKey>
UJFIVLIFWNFOIZ-UHFFFAOYSA-N

>  <SMILES>
CCCCc1c(nc2ccc(cc2c1SCCC#N)OC)C

$$$$
