5EFC_GTP_A_501
  RCSB PDB08022001133D
Coordinates from PDB:5EFC:A:501 Model:1 without hydrogens
 32 34  0  0  0  0            999 V2000
   28.1370   28.9640   24.3620   P 0  0  0  0  0  0  0  0  0  0  0  0
   28.1960   29.5540   22.9710   O 0  0  0  0  0  0  0  0  0  0  0  0
   26.8530   28.1940   24.5820   O 0  0  0  0  0  0  0  0  0  0  0  0
   28.1930   30.0840   25.3770   O 0  0  0  0  0  0  0  0  0  0  0  0
   29.3910   27.9810   24.6190   O 0  0  0  0  0  0  0  0  0  0  0  0
   30.0690   27.1160   23.4360   P 0  0  0  0  0  0  0  0  0  0  0  0
   29.0320   26.2120   22.8090   O 0  0  0  0  0  0  0  0  0  0  0  0
   31.2100   26.2940   23.9940   O 0  0  0  0  0  0  0  0  0  0  0  0
   30.6340   28.1480   22.3240   O 0  0  0  0  0  0  0  0  0  0  0  0
   31.7820   29.2670   22.5480   P 0  0  0  0  0  0  0  0  0  0  0  0
   31.5310   30.4050   21.5880   O 0  0  0  0  0  0  0  0  0  0  0  0
   33.1650   28.6950   22.3310   O 0  0  0  0  0  0  0  0  0  0  0  0
   31.6310   29.8310   24.0550   O 0  0  0  0  0  0  0  0  0  0  0  0
   32.3550   29.3350   25.1610   C 0  0  0  0  0  0  0  0  0  0  0  0
   32.4020   30.4100   26.2480   C 0  0  0  0  0  0  0  0  0  0  0  0
   33.4290   31.3330   25.9250   O 0  0  0  0  0  0  0  0  0  0  0  0
   31.1170   31.2160   26.3460   C 0  0  0  0  0  0  0  0  0  0  0  0
   30.8610   31.4660   27.7080   O 0  0  0  0  0  0  0  0  0  0  0  0
   31.4220   32.5460   25.6920   C 0  0  0  0  0  0  0  0  0  0  0  0
   30.8040   33.5930   26.4120   O 0  0  0  0  0  0  0  0  0  0  0  0
   32.9330   32.6550   25.8010   C 0  0  0  0  0  0  0  0  0  0  0  0
   33.5700   33.2840   24.6240   N 0  0  0  0  0  0  0  0  0  0  0  0
   33.2460   33.1340   23.2990   C 0  0  0  0  0  0  0  0  0  0  0  0
   34.1090   33.8660   22.5540   N 0  0  0  0  0  0  0  0  0  0  0  0
   34.9780   34.4860   23.3880   C 0  0  0  0  0  0  0  0  0  0  0  0
   36.0500   35.3370   23.1650   C 0  0  0  0  0  0  0  0  0  0  0  0
   36.3540   35.6750   22.0190   O 0  0  0  0  0  0  0  0  0  0  0  0
   36.7680   35.8010   24.2450   N 0  0  0  0  0  0  0  0  0  0  0  0
   36.4320   35.4190   25.5250   C 0  0  0  0  0  0  0  0  0  0  0  0
   37.1250   35.8610   26.5710   N 0  0  0  0  0  0  0  0  0  0  0  0
   35.3650   34.5760   25.7360   N 0  0  0  0  0  0  0  0  0  0  0  0
   34.6550   34.1130   24.6820   C 0  0  0  0  0  0  0  0  0  0  0  0
  1  2  2  0  0  0  0
  1  3  1  0  0  0  0
  1  4  1  0  0  0  0
  1  5  1  0  0  0  0
  5  6  1  0  0  0  0
  6  7  2  0  0  0  0
  6  8  1  0  0  0  0
  6  9  1  0  0  0  0
  9 10  1  0  0  0  0
 10 11  2  0  0  0  0
 10 12  1  0  0  0  0
 10 13  1  0  0  0  0
 13 14  1  0  0  0  0
 14 15  1  0  0  0  0
 15 16  1  0  0  0  0
 15 17  1  0  0  0  0
 16 21  1  0  0  0  0
 17 18  1  0  0  0  0
 17 19  1  0  0  0  0
 19 20  1  0  0  0  0
 19 21  1  0  0  0  0
 21 22  1  0  0  0  0
 22 23  1  0  0  0  0
 22 32  1  0  0  0  0
 23 24  2  0  0  0  0
 24 25  1  0  0  0  0
 25 26  1  0  0  0  0
 25 32  2  0  0  0  0
 26 27  2  0  0  0  0
 26 28  1  0  0  0  0
 28 29  1  0  0  0  0
 29 30  1  0  0  0  0
 29 31  2  0  0  0  0
 31 32  1  0  0  0  0
M  END
>  <InstanceId>
5EFC_GTP_A_501

>  <ChemCompId>
GTP

>  <PdbId>
5EFC

>  <ChainId>
A

>  <ResidueNumber>
501

>  <InsertionCode>


>  <Model>
1

>  <AltIds>


>  <MissingHeavyAtoms>
0

>  <ObservedFormula>
C10 N5 O14 P3

>  <Name>
GUANOSINE-5'-TRIPHOSPHATE

>  <SystematicName>
[[(2R,3S,4R,5R)-5-(2-azanyl-6-oxidanylidene-1H-purin-9-yl)-3,4-bis(oxidanyl)oxolan-2-yl]methoxy-oxidanyl-phosphoryl] phosphono hydrogen phosphate

>  <Synonyms>


>  <Type>
NON-POLYMER

>  <Formula>
C10 H16 N5 O14 P3

>  <MolecularWeight>
523.18

>  <ModifiedDate>
2013-03-22

>  <Parent>
G

>  <OneLetterCode>
G

>  <SubcomponentList>


>  <AmbiguousFlag>
N

>  <InChI>
InChI=1S/C10H16N5O14P3/c11-10-13-7-4(8(18)14-10)12-2-15(7)9-6(17)5(16)3(27-9)1-26-31(22,23)29-32(24,25)28-30(19,20)21/h2-3,5-6,9,16-17H,1H2,(H,22,23)(H,24,25)(H2,19,20,21)(H3,11,13,14,18)/t3-,5-,6-,9-/m1/s1

>  <InChIKey>
XKMLYUALXHKNFT-UUOKFMHZSA-N

>  <SMILES>
c1nc2c(n1[C@H]3[C@@H]([C@@H]([C@H](O3)CO[P@](=O)(O)O[P@](=O)(O)OP(=O)(O)O)O)O)N=C(NC2=O)N

$$$$
