4B1J_A1R_A_1966
  RCSB PDB08012021103D
Coordinates from PDB:4B1J:A:1966 Model:1 without hydrogens
 35 38  0  0  0  0            999 V2000
   23.1950   -4.3180   -1.2490   N 0  0  0  0  0  0  0  0  0  0  0  0
   24.0350   -5.2700   -0.8260   C 0  0  0  0  0  0  0  0  0  0  0  0
   25.3000   -5.1420   -0.4210   N 0  0  0  0  0  0  0  0  0  0  0  0
   25.6960   -3.8670   -0.4600   C 0  0  0  0  0  0  0  0  0  0  0  0
   24.9440   -2.7800   -0.8690   C 0  0  0  0  0  0  0  0  0  0  0  0
   23.6210   -3.0390   -1.2910   C 0  0  0  0  0  0  0  0  0  0  0  0
   22.7710   -2.1070   -1.7310   N 0  0  0  0  0  0  0  0  0  0  0  0
   25.6850   -1.6140   -0.7810   N 0  0  0  0  0  0  0  0  0  0  0  0
   26.8290   -2.0160   -0.3060   C 0  0  0  0  0  0  0  0  0  0  0  0
   26.9140   -3.3640   -0.0980   N 0  0  0  0  0  0  0  0  0  0  0  0
   28.0630   -4.1370    0.3870   C 0  0  0  0  0  0  0  0  0  0  0  0
   29.4320   -3.6500   -0.1100   C 0  0  0  0  0  0  0  0  0  0  0  0
   30.2510   -4.7900   -0.3840   O 0  0  0  0  0  0  0  0  0  0  0  0
   29.9360   -2.8660    1.0910   C 0  0  0  0  0  0  0  0  0  0  0  0
   31.3510   -2.8270    1.1480   O 0  0  0  0  0  0  0  0  0  0  0  0
   28.0760   -4.0890    1.8020   O 0  0  0  0  0  0  0  0  0  0  0  0
   29.3830   -3.6870    2.2560   C 0  0  0  0  0  0  0  0  0  0  0  0
   29.2760   -2.9830    3.5930   C 0  0  0  0  0  0  0  0  0  0  0  0
   28.6440   -1.7150    3.4130   O 0  0  0  0  0  0  0  0  0  0  0  0
   28.9310   -0.5290    4.3980   P 0  0  0  0  0  0  0  0  0  0  0  0
   28.0590    0.6020    4.0480   O 0  0  0  0  0  0  0  0  0  0  0  0
   30.4070   -0.2020    4.3390   O 0  0  0  0  0  0  0  0  0  0  0  0
   28.6190   -1.1950    5.8110   O 0  0  0  0  0  0  0  0  0  0  0  0
   29.4190   -1.2670    7.1970   P 0  0  0  0  0  0  0  0  0  0  0  0
   28.5270   -1.9880    8.1810   O 0  0  0  0  0  0  0  0  0  0  0  0
   30.7880   -1.7960    6.9840   O 0  0  0  0  0  0  0  0  0  0  0  0
   29.5390    0.2530    7.5920   O 0  0  0  0  0  0  0  0  0  0  0  0
   28.6190    0.8370    8.5190   C 0  0  0  0  0  0  0  0  0  0  0  0
   28.7780    2.9860    7.3040   N 0  0  0  0  0  0  0  0  0  0  0  0
   27.5210    3.7570    7.3000   C 0  0  0  0  0  0  0  0  0  0  0  0
   25.9760    4.4400    8.9890   O 0  0  0  0  0  0  0  0  0  0  0  0
   26.8120    3.3820    8.5870   C 0  0  0  0  0  0  0  0  0  0  0  0
   28.5760    4.2600   10.0160   O 0  0  0  0  0  0  0  0  0  0  0  0
   27.9580    3.1000    9.5250   C 0  0  0  0  0  0  0  0  0  0  0  0
   28.9130    2.3230    8.6140   C 0  0  0  0  0  0  0  0  0  0  0  0
  1  2  2  0  0  0  0
  1  6  1  0  0  0  0
  2  3  1  0  0  0  0
  3  4  2  0  0  0  0
  4  5  1  0  0  0  0
  4 10  1  0  0  0  0
  5  6  2  0  0  0  0
  5  8  1  0  0  0  0
  6  7  1  0  0  0  0
  8  9  2  0  0  0  0
  9 10  1  0  0  0  0
 10 11  1  0  0  0  0
 11 16  1  0  0  0  0
 11 12  1  0  0  0  0
 12 13  1  0  0  0  0
 12 14  1  0  0  0  0
 14 17  1  0  0  0  0
 14 15  1  0  0  0  0
 16 17  1  0  0  0  0
 17 18  1  0  0  0  0
 18 19  1  0  0  0  0
 19 20  1  0  0  0  0
 20 23  1  0  0  0  0
 20 21  2  0  0  0  0
 20 22  1  0  0  0  0
 23 24  1  0  0  0  0
 24 26  2  0  0  0  0
 24 25  1  0  0  0  0
 24 27  1  0  0  0  0
 27 28  1  0  0  0  0
 28 35  1  0  0  0  0
 29 35  1  0  0  0  0
 29 30  1  0  0  0  0
 30 32  1  0  0  0  0
 31 32  1  0  0  0  0
 32 34  1  0  0  0  0
 33 34  1  0  0  0  0
 34 35  1  0  0  0  0
M  END
>  <InstanceId>
4B1J_A1R_A_1966

>  <ChemCompId>
A1R

>  <PdbId>
4B1J

>  <ChainId>
A

>  <ResidueNumber>
1966

>  <InsertionCode>


>  <Model>
1

>  <AltIds>


>  <MissingHeavyAtoms>
0

>  <ObservedFormula>
C15 N6 O12 P2

>  <Name>
5'-O-[(S)-{[(S)-{[(2R,3R,4S)-3,4-DIHYDROXYPYRROLIDIN-2-YL]METHOXY}(HYDROXY)PHOSPHORYL]OXY}(HYDROXY)PHOSPHORYL]ADENOSINE

>  <SystematicName>
[(2R,3S,4R,5R)-5-(6-aminopurin-9-yl)-3,4-dihydroxy-oxolan-2-yl]methyl [[(2R,3R,4S)-3,4-dihydroxypyrrolidin-2-yl]methoxy-hydroxy-phosphoryl] hydrogen phosphate

>  <Synonyms>


>  <Type>
NON-POLYMER

>  <Formula>
C15 H24 N6 O12 P2

>  <MolecularWeight>
542.332

>  <ModifiedDate>
2011-06-04

>  <Parent>


>  <OneLetterCode>


>  <SubcomponentList>


>  <AmbiguousFlag>


>  <InChI>
InChI=1S/C15H24N6O12P2/c16-13-9-14(19-4-18-13)21(5-20-9)15-12(25)11(24)8(32-15)3-31-35(28,29)33-34(26,27)30-2-6-10(23)7(22)1-17-6/h4-8,10-12,15,17,22-25H,1-3H2,(H,26,27)(H,28,29)(H2,16,18,19)/t6-,7+,8-,10-,11-,12-,15-/m1/s1

>  <InChIKey>
NDQDTBCXPOIQGT-UHNJQBFTSA-N

>  <SMILES>
c1nc(c2c(n1)n(cn2)[C@H]3[C@@H]([C@@H]([C@H](O3)CO[P@](=O)(O)O[P@@](=O)(O)OC[C@@H]4[C@H]([C@H](CN4)O)O)O)O)N

$$$$
