3EBL_GA4_A_401
  RCSB PDB08012018553D
Coordinates from PDB:3EBL:A:401 Model:1 without hydrogens
 24 28  0  0  0  0            999 V2000
   30.5200   46.4740   14.2660   C 0  0  0  0  0  0  0  0  0  0  0  0
   29.4360   46.2260   13.2200   C 0  0  0  0  0  0  0  0  0  0  0  0
   29.5620   44.8060   12.5960   C 0  0  0  0  0  0  0  0  0  0  0  0
   29.0310   43.8480   13.5190   O 0  0  0  0  0  0  0  0  0  0  0  0
   31.0090   44.4270   12.2010   C 0  0  0  0  0  0  0  0  0  0  0  0
   31.8400   44.4800   13.4730   C 0  0  0  0  0  0  0  0  0  0  0  0
   33.3390   44.1100   13.4810   C 0  0  0  0  0  0  0  0  0  0  0  0
   33.5560   42.6400   13.7310   C 0  0  0  0  0  0  0  0  0  0  0  0
   32.9360   41.9780   14.6060   O 0  0  0  0  0  0  0  0  0  0  0  0
   34.3980   42.1300   12.9970   O 0  0  0  0  0  0  0  0  0  0  0  0
   34.0370   45.0690   14.4660   C 0  0  0  0  0  0  0  0  0  0  0  0
   33.0680   46.2830   14.6080   C 0  0  0  0  0  0  0  0  0  0  0  0
   31.8900   45.9970   13.7050   C 0  0  0  0  0  0  0  0  0  0  0  0
   33.7810   47.6300   14.3220   C 0  0  0  0  0  0  0  0  0  0  0  0
   35.1130   47.7710   15.1060   C 0  0  0  0  0  0  0  0  0  0  0  0
   35.8650   46.4110   15.2250   C 0  0  0  0  0  0  0  0  0  0  0  0
   35.4170   45.5810   14.0360   C 0  0  0  0  0  0  0  0  0  0  0  0
   34.3550   44.5090   15.8530   C 0  0  0  0  0  0  0  0  0  0  0  0
   35.3230   45.5530   16.3290   C 0  0  0  0  0  0  0  0  0  0  0  0
   35.6760   45.6310   17.6050   C 0  0  0  0  0  0  0  0  0  0  0  0
   31.0990   43.0840   11.4690   C 0  0  0  0  0  0  0  0  0  0  0  0
   31.5600   45.5790   11.4220   C 0  0  0  0  0  0  0  0  0  0  0  0
   31.5890   45.7400   10.1990   O 0  0  0  0  0  0  0  0  0  0  0  0
   32.0940   46.4940   12.3580   O 0  0  0  0  0  0  0  0  0  0  0  0
  1  2  1  0  0  0  0
  1 13  1  0  0  0  0
  2  3  1  0  0  0  0
  3  4  1  0  0  0  0
  3  5  1  0  0  0  0
  5  6  1  0  0  0  0
  5 21  1  0  0  0  0
  5 22  1  0  0  0  0
  6  7  1  0  0  0  0
  6 13  1  0  0  0  0
  7  8  1  0  0  0  0
  7 11  1  0  0  0  0
  8  9  2  0  0  0  0
  8 10  1  0  0  0  0
 11 12  1  0  0  0  0
 11 17  1  0  0  0  0
 11 18  1  0  0  0  0
 12 13  1  0  0  0  0
 12 14  1  0  0  0  0
 13 24  1  0  0  0  0
 14 15  1  0  0  0  0
 15 16  1  0  0  0  0
 16 17  1  0  0  0  0
 16 19  1  0  0  0  0
 18 19  1  0  0  0  0
 19 20  2  0  0  0  0
 22 23  2  0  0  0  0
 22 24  1  0  0  0  0
M  END
>  <InstanceId>
3EBL_GA4_A_401

>  <ChemCompId>
GA4

>  <PdbId>
3EBL

>  <ChainId>
A

>  <ResidueNumber>
401

>  <InsertionCode>


>  <Model>
1

>  <AltIds>


>  <MissingHeavyAtoms>
0

>  <ObservedFormula>
C19 O5

>  <Name>
GIBBERELLIN A4

>  <SystematicName>


>  <Synonyms>


>  <Type>
NON-POLYMER

>  <Formula>
C19 H24 O5

>  <MolecularWeight>
332.391

>  <ModifiedDate>
2011-06-04

>  <Parent>


>  <OneLetterCode>


>  <SubcomponentList>


>  <AmbiguousFlag>
N

>  <InChI>
InChI=1S/C19H24O5/c1-9-7-18-8-10(9)3-4-11(18)19-6-5-12(20)17(2,16(23)24-19)14(19)13(18)15(21)22/h10-14,20H,1,3-8H2,2H3,(H,21,22)/t10-,11-,12+,13-,14-,17-,18+,19-/m1/s1

>  <InChIKey>
RSQSQJNRHICNNH-NFMPGMCNSA-N

>  <SMILES>
C[C@@]12[C@H](CC[C@@]3([C@@H]1[C@@H]([C@]45[C@H]3CC[C@H](C4)C(=C)C5)C(=O)O)OC2=O)O

$$$$
