5KR1_017_B_101
  RCSB PDB08022002053D
Coordinates from PDB:5KR1:B:101 Model:1 without hydrogens
 38 41  0  0  0  0            999 V2000
  -10.3220   -7.9870  -17.8700   N 0  0  0  0  0  0  0  0  0  0  0  0
   -9.5960   -6.9780  -17.1550   C 0  0  0  0  0  0  0  0  0  0  0  0
   -8.4720   -7.3600  -16.4440   C 0  0  0  0  0  0  0  0  0  0  0  0
   -7.7500   -6.4090  -15.7380   C 0  0  0  0  0  0  0  0  0  0  0  0
   -8.1580   -5.0840  -15.7410   C 0  0  0  0  0  0  0  0  0  0  0  0
   -9.2830   -4.6860  -16.4510   C 0  0  0  0  0  0  0  0  0  0  0  0
  -10.0090   -5.6520  -17.1670   C 0  0  0  0  0  0  0  0  0  0  0  0
   -7.1370   -3.9150  -14.8100   S 0  0  0  0  0  0  0  0  0  0  0  0
   -7.9170   -2.8380  -14.2920   O 0  0  0  0  0  0  0  0  0  0  0  0
   -6.4820   -4.6090  -13.7510   O 0  0  0  0  0  0  0  0  0  0  0  0
   -5.9610   -3.2900  -15.8390   N 0  0  0  0  0  0  0  0  0  0  0  0
   -5.0990   -4.2670  -16.5160   C 0  0  0  0  0  0  0  0  0  0  0  0
   -3.5910   -3.8980  -16.5190   C 0  0  0  0  0  0  0  0  0  0  0  0
   -3.0520   -3.9650  -15.0970   C 0  0  0  0  0  0  0  0  0  0  0  0
   -2.8540   -4.8860  -17.3940   C 0  0  0  0  0  0  0  0  0  0  0  0
   -6.2730   -1.9850  -16.4750   C 0  0  0  0  0  0  0  0  0  0  0  0
   -5.3710   -0.8830  -15.9180   C 0  0  0  0  0  0  0  0  0  0  0  0
   -5.2990    0.1790  -16.8160   O 0  0  0  0  0  0  0  0  0  0  0  0
   -5.8370   -0.3700  -14.5590   C 0  0  0  0  0  0  0  0  0  0  0  0
   -4.8500    0.5530  -14.1160   N 0  0  0  0  0  0  0  0  0  0  0  0
   -3.8770    0.2420  -13.1050   C 0  0  0  0  0  0  0  0  0  0  0  0
   -3.8590   -0.8110  -12.4820   O 0  0  0  0  0  0  0  0  0  0  0  0
   -2.9270    1.2790  -12.9030   O 0  0  0  0  0  0  0  0  0  0  0  0
   -2.1350    1.2880  -11.7600   C 0  0  0  0  0  0  0  0  0  0  0  0
   -0.8400    1.8660  -12.1530   C 0  0  0  0  0  0  0  0  0  0  0  0
   -1.0550    3.1620  -12.1270   O 0  0  0  0  0  0  0  0  0  0  0  0
   -2.0650    3.4060  -10.9330   C 0  0  0  0  0  0  0  0  0  0  0  0
   -3.1020    4.3440  -11.5050   O 0  0  0  0  0  0  0  0  0  0  0  0
   -4.3970    3.5940  -11.4960   C 0  0  0  0  0  0  0  0  0  0  0  0
   -4.2030    2.5770  -10.7420   C 0  0  0  0  0  0  0  0  0  0  0  0
   -2.6200    2.3070  -10.6820   C 0  0  0  0  0  0  0  0  0  0  0  0
   -7.1470    0.4130  -14.5830   C 0  0  0  0  0  0  0  0  0  0  0  0
   -7.4160    2.1630  -12.9130   C 0  0  0  0  0  0  0  0  0  0  0  0
   -7.6690    2.6970  -11.6440   C 0  0  0  0  0  0  0  0  0  0  0  0
   -7.9770    1.8500  -10.5880   C 0  0  0  0  0  0  0  0  0  0  0  0
   -8.0340    0.4760  -10.7990   C 0  0  0  0  0  0  0  0  0  0  0  0
   -7.7790   -0.0590  -12.0630   C 0  0  0  0  0  0  0  0  0  0  0  0
   -7.4730    0.7880  -13.1220   C 0  0  0  0  0  0  0  0  0  0  0  0
  1  2  1  0  0  0  0
  2  3  2  0  0  0  0
  2  7  1  0  0  0  0
  3  4  1  0  0  0  0
  4  5  2  0  0  0  0
  5  6  1  0  0  0  0
  5  8  1  0  0  0  0
  6  7  2  0  0  0  0
  8  9  2  0  0  0  0
  8 10  2  0  0  0  0
  8 11  1  0  0  0  0
 11 12  1  0  0  0  0
 11 16  1  0  0  0  0
 12 13  1  0  0  0  0
 13 14  1  0  0  0  0
 13 15  1  0  0  0  0
 16 17  1  0  0  0  0
 17 18  1  0  0  0  0
 17 19  1  0  0  0  0
 19 20  1  0  0  0  0
 19 32  1  0  0  0  0
 20 21  1  0  0  0  0
 21 22  2  0  0  0  0
 21 23  1  0  0  0  0
 23 24  1  0  0  0  0
 24 25  1  0  0  0  0
 24 31  1  0  0  0  0
 25 26  1  0  0  0  0
 26 27  1  0  0  0  0
 27 28  1  0  0  0  0
 27 31  1  0  0  0  0
 28 29  1  0  0  0  0
 29 30  1  0  0  0  0
 30 31  1  0  0  0  0
 32 38  1  0  0  0  0
 33 34  2  0  0  0  0
 33 38  1  0  0  0  0
 34 35  1  0  0  0  0
 35 36  2  0  0  0  0
 36 37  1  0  0  0  0
 37 38  2  0  0  0  0
M  END
>  <InstanceId>
5KR1_017_B_101

>  <ChemCompId>
017

>  <PdbId>
5KR1

>  <ChainId>
B

>  <ResidueNumber>
101

>  <InsertionCode>


>  <Model>
1

>  <AltIds>


>  <MissingHeavyAtoms>
0

>  <ObservedFormula>
C27 N3 O7 S

>  <Name>
(3R,3AS,6AR)-HEXAHYDROFURO[2,3-B]FURAN-3-YL(1S,2R)-3-[[(4-AMINOPHENYL)SULFONYL](ISOBUTYL)AMINO]-1-BENZYL-2-HYDROXYPROPYLCARBAMATE

>  <SystematicName>
[(3R,3aS,6aR)-2,3,3a,4,5,6a-hexahydrofuro[2,3-b]furan-3-yl] N-[(2S,3R)-4-[(4-aminophenyl)sulfonyl-(2-methylpropyl)amino]-3-hydroxy-1-phenyl-butan-2-yl]carbamate

>  <Synonyms>
Darunavir; TMC114; UIC-94017

>  <Type>
NON-POLYMER

>  <Formula>
C27 H37 N3 O7 S

>  <MolecularWeight>
547.664

>  <ModifiedDate>
2020-05-22

>  <Parent>


>  <OneLetterCode>


>  <SubcomponentList>


>  <AmbiguousFlag>
N

>  <InChI>
InChI=1S/C27H37N3O7S/c1-18(2)15-30(38(33,34)21-10-8-20(28)9-11-21)16-24(31)23(14-19-6-4-3-5-7-19)29-27(32)37-25-17-36-26-22(25)12-13-35-26/h3-11,18,22-26,31H,12-17,28H2,1-2H3,(H,29,32)/t22-,23-,24+,25-,26+/m0/s1

>  <InChIKey>
CJBJHOAVZSMMDJ-HEXNFIEUSA-N

>  <SMILES>
CC(C)C[N@@](C[C@H]([C@H](Cc1ccccc1)NC(=O)O[C@H]2CO[C@@H]3[C@H]2CCO3)O)S(=O)(=O)c4ccc(cc4)N

$$$$
