1O38_653_A_246
  RCSB PDB08012015363D
Coordinates from PDB:1O38:A:246 Model:1 without hydrogens
 28 31  0  0  0  0            999 V2000
   44.0220   -3.0310   26.2340   C 0  0  0  0  0  0  0  0  0  0  0  0
   44.3330   -1.6250   26.2420   C 0  0  0  0  0  0  0  0  0  0  0  0
   44.2310   -0.8210   27.3730   C 0  0  0  0  0  0  0  0  0  0  0  0
   43.8170   -1.4340   28.5140   C 0  0  0  0  0  0  0  0  0  0  0  0
   43.5170   -2.7500   28.5750   C 0  0  0  0  0  0  0  0  0  0  0  0
   43.5910   -3.6040   27.4670   C 0  0  0  0  0  0  0  0  0  0  0  0
   44.1530   -3.7910   25.0430   C 0  0  0  0  0  0  0  0  0  0  0  0
   43.9290   -5.0950   25.0620   N 0  0  0  0  0  0  0  0  0  0  0  0
   44.4950   -3.1640   23.9270   N 0  3  0  0  0  0  0  0  0  0  0  0
   43.6520   -0.9510   29.6990   N 0  0  0  0  0  0  0  0  0  0  0  0
   43.1500   -3.1160   29.7900   N 0  0  0  0  0  0  0  0  0  0  0  0
   43.2560   -1.9520   30.4260   C 0  0  0  0  0  0  0  0  0  0  0  0
   43.0090   -1.8400   31.8180   C 0  0  0  0  0  0  0  0  0  0  0  0
   42.6560   -2.9710   32.5930   C 0  0  0  0  0  0  0  0  0  0  0  0
   42.4060   -2.8870   33.9640   C 0  0  0  0  0  0  0  0  0  0  0  0
   42.0430   -4.1490   34.8160   C 0  0  0  0  0  0  0  0  0  0  0  0
   40.5370   -4.5580   34.6550   C 0  0  0  0  0  0  0  0  0  0  0  0
   40.3380   -5.9590   35.2030   N 0  3  0  0  0  0  0  0  0  0  0  0
   42.5060   -1.6430   34.5750   C 0  0  0  0  0  0  0  0  0  0  0  0
   42.8490   -0.4840   33.8720   C 0  0  0  0  0  0  0  0  0  0  0  0
   43.0940   -0.6050   32.4980   C 0  0  0  0  0  0  0  0  0  0  0  0
   43.4330    0.5290   31.8090   O 0  5  0  0  0  0  0  0  0  0  0  0
   42.9280    0.7280   34.5730   C 0  0  0  0  0  0  0  0  0  0  0  0
   44.1210    1.4670   34.6850   C 0  0  0  0  0  0  0  0  0  0  0  0
   44.1730    2.6630   35.4210   C 0  0  0  0  0  0  0  0  0  0  0  0
   43.0420    3.1580   36.0620   C 0  0  0  0  0  0  0  0  0  0  0  0
   41.8450    2.4450   35.9660   C 0  0  0  0  0  0  0  0  0  0  0  0
   41.7920    1.2510   35.2280   C 0  0  0  0  0  0  0  0  0  0  0  0
  1  2  2  0  0  0  0
  1  6  1  0  0  0  0
  1  7  1  0  0  0  0
  2  3  1  0  0  0  0
  3  4  2  0  0  0  0
  4  5  1  0  0  0  0
  4 10  1  0  0  0  0
  5  6  2  0  0  0  0
  5 11  1  0  0  0  0
  7  8  1  0  0  0  0
  7  9  2  0  0  0  0
 10 12  1  0  0  0  0
 11 12  2  0  0  0  0
 12 13  1  0  0  0  0
 13 14  2  0  0  0  0
 13 21  1  0  0  0  0
 14 15  1  0  0  0  0
 15 16  1  0  0  0  0
 15 19  2  0  0  0  0
 16 17  1  0  0  0  0
 17 18  1  0  0  0  0
 19 20  1  0  0  0  0
 20 21  2  0  0  0  0
 20 23  1  0  0  0  0
 21 22  1  0  0  0  0
 23 24  2  0  0  0  0
 23 28  1  0  0  0  0
 24 25  1  0  0  0  0
 25 26  2  0  0  0  0
 26 27  1  0  0  0  0
 27 28  2  0  0  0  0
M  CHG  3   9   1  18   1  22  -1
M  END
>  <InstanceId>
1O38_653_A_246

>  <ChemCompId>
653

>  <PdbId>
1O38

>  <ChainId>
A

>  <ResidueNumber>
246

>  <InsertionCode>


>  <Model>
1

>  <AltIds>


>  <MissingHeavyAtoms>
0

>  <ObservedFormula>
C22 N5 O

>  <Name>
5-(2-AMINOETHYL)-3-{5-[AMINO(IMINIO)METHYL]-1H-BENZIMIDAZOL-2-YL}-1,1'-BIPHENYL-2-OLATE

>  <SystematicName>
2-[5-(amino-azaniumylidene-methyl)-1H-benzimidazol-2-yl]-4-(2-azaniumylethyl)-6-phenyl-phenolate

>  <Synonyms>
CRA_23653

>  <Type>
NON-POLYMER

>  <Formula>
C22 H22 N5 O

>  <MolecularWeight>
372.443

>  <ModifiedDate>
2020-06-17

>  <Parent>


>  <OneLetterCode>


>  <SubcomponentList>


>  <AmbiguousFlag>
N

>  <InChI>
InChI=1S/C22H21N5O/c23-9-8-13-10-16(14-4-2-1-3-5-14)20(28)17(11-13)22-26-18-7-6-15(21(24)25)12-19(18)27-22/h1-7,10-12,28H,8-9,23H2,(H3,24,25)(H,26,27)/p+1

>  <InChIKey>
YYUZFCLHOQHMPT-UHFFFAOYSA-O

>  <SMILES>
c1ccc(cc1)c2cc(cc(c2[O-])c3[nH]c4ccc(cc4n3)C(=[NH2+])N)CC[NH3+]

$$$$
