4ZZD_RBF_A_201
  RCSB PDB08022000423D
Coordinates from PDB:4ZZD:A:201 Model:1 without hydrogens
 27 29  0  0  0  0            999 V2000
    1.6490    3.6160   88.9580   N 0  0  0  0  0  0  0  0  0  0  0  0
    0.5140    2.9630   88.5960   C 0  0  0  0  0  0  0  0  0  0  0  0
   -0.3010    3.5400   87.8410   O 0  0  0  0  0  0  0  0  0  0  0  0
    0.2310    1.7170   89.0170   N 0  0  0  0  0  0  0  0  0  0  0  0
    1.0500    1.0290   89.8270   C 0  0  0  0  0  0  0  0  0  0  0  0
    0.7600   -0.1290   90.2020   O 0  0  0  0  0  0  0  0  0  0  0  0
    2.3150    1.6720   90.2710   C 0  0  0  0  0  0  0  0  0  0  0  0
    3.1950    1.0460   91.0880   N 0  0  0  0  0  0  0  0  0  0  0  0
    4.3390    1.6570   91.4750   C 0  0  0  0  0  0  0  0  0  0  0  0
    5.2260    0.9890   92.3140   C 0  0  0  0  0  0  0  0  0  0  0  0
    6.4070    1.6060   92.7190   C 0  0  0  0  0  0  0  0  0  0  0  0
    7.3640    0.8760   93.6280   C 0  0  0  0  0  0  0  0  0  0  0  0
    6.7220    2.9860   92.2540   C 0  0  0  0  0  0  0  0  0  0  0  0
    7.9980    3.6580   92.6920   C 0  0  0  0  0  0  0  0  0  0  0  0
    5.8370    3.6570   91.4140   C 0  0  0  0  0  0  0  0  0  0  0  0
    4.6560    3.0400   91.0070   C 0  0  0  0  0  0  0  0  0  0  0  0
    3.7550    3.7090   90.1500   N 0  0  0  0  0  0  0  0  0  0  0  0
    2.5670    3.0470   89.7740   C 0  0  0  0  0  0  0  0  0  0  0  0
    4.0170    5.0730   89.6780   C 0  0  0  0  0  0  0  0  0  0  0  0
    4.3410    5.0730   88.1890   C 0  0  0  0  0  0  0  0  0  0  0  0
    5.7550    4.9370   88.0060   O 0  0  0  0  0  0  0  0  0  0  0  0
    3.8600    6.3660   87.5370   C 0  0  0  0  0  0  0  0  0  0  0  0
    4.4880    7.4760   88.1870   O 0  0  0  0  0  0  0  0  0  0  0  0
    2.3420    6.5190   87.6270   C 0  0  0  0  0  0  0  0  0  0  0  0
    1.6910    5.2860   87.2890   O 0  0  0  0  0  0  0  0  0  0  0  0
    1.8370    7.6390   86.7200   C 0  0  0  0  0  0  0  0  0  0  0  0
    2.8510    7.9910   85.7690   O 0  0  0  0  0  0  0  0  0  0  0  0
  1  2  1  0  0  0  0
  1 18  2  0  0  0  0
  2  3  2  0  0  0  0
  2  4  1  0  0  0  0
  4  5  1  0  0  0  0
  5  6  2  0  0  0  0
  5  7  1  0  0  0  0
  7  8  2  0  0  0  0
  7 18  1  0  0  0  0
  8  9  1  0  0  0  0
  9 10  2  0  0  0  0
  9 16  1  0  0  0  0
 10 11  1  0  0  0  0
 11 12  1  0  0  0  0
 11 13  2  0  0  0  0
 13 14  1  0  0  0  0
 13 15  1  0  0  0  0
 15 16  2  0  0  0  0
 16 17  1  0  0  0  0
 17 18  1  0  0  0  0
 17 19  1  0  0  0  0
 19 20  1  0  0  0  0
 20 21  1  0  0  0  0
 20 22  1  0  0  0  0
 22 23  1  0  0  0  0
 22 24  1  0  0  0  0
 24 25  1  0  0  0  0
 24 26  1  0  0  0  0
 26 27  1  0  0  0  0
M  END
>  <InstanceId>
4ZZD_RBF_A_201

>  <ChemCompId>
RBF

>  <PdbId>
4ZZD

>  <ChainId>
A

>  <ResidueNumber>
201

>  <InsertionCode>


>  <Model>
1

>  <AltIds>


>  <MissingHeavyAtoms>
0

>  <ObservedFormula>
C17 N4 O6

>  <Name>
RIBOFLAVIN

>  <SystematicName>
7,8-dimethyl-10-[(2S,3S,4R)-2,3,4,5-tetrakis(oxidanyl)pentyl]benzo[g]pteridine-2,4-dione

>  <Synonyms>
RIBOFLAVINE; VITAMIN B2

>  <Type>
NON-POLYMER

>  <Formula>
C17 H20 N4 O6

>  <MolecularWeight>
376.364

>  <ModifiedDate>
2020-06-17

>  <Parent>


>  <OneLetterCode>


>  <SubcomponentList>


>  <AmbiguousFlag>
N

>  <InChI>
InChI=1S/C17H20N4O6/c1-7-3-9-10(4-8(7)2)21(5-11(23)14(25)12(24)6-22)15-13(18-9)16(26)20-17(27)19-15/h3-4,11-12,14,22-25H,5-6H2,1-2H3,(H,20,26,27)/t11-,12+,14-/m0/s1

>  <InChIKey>
AUNGANRZJHBGPY-SCRDCRAPSA-N

>  <SMILES>
Cc1cc2c(cc1C)N(C3=NC(=O)NC(=O)C3=N2)C[C@@H]([C@@H]([C@@H](CO)O)O)O

$$$$
