5G2B_LQY_A_1003
  RCSB PDB08022001273D
Coordinates from PDB:5G2B:A:1003 Model:1 without hydrogens
 39 43  0  0  0  0            999 V2000
   28.8480   13.3050    1.0390   C 0  0  0  0  0  0  0  0  0  0  0  0
   30.5210   18.3410   -5.5970   N 0  0  0  0  0  0  0  0  0  0  0  0
   28.4000   13.7500   -0.2450   O 0  0  0  0  0  0  0  0  0  0  0  0
   27.9640   12.8030   -1.1330   C 0  0  0  0  0  0  0  0  0  0  0  0
   33.1220   20.8360   -5.3380   N 0  0  0  0  0  0  0  0  0  0  0  0
   28.6760   19.2510   -4.6890   O 0  0  0  0  0  0  0  0  0  0  0  0
   27.5980   11.4990   -0.7720   C 0  0  0  0  0  0  0  0  0  0  0  0
   26.1380   10.6370   -5.1930   N 0  0  0  0  0  0  0  0  0  0  0  0
   31.6630   20.2870   -3.7160   O 0  0  0  0  0  0  0  0  0  0  0  0
   27.2060   10.5950   -1.7520   C 0  0  0  0  0  0  0  0  0  0  0  0
   25.5340    9.8420   -6.1500   N 0  0  0  0  0  0  0  0  0  0  0  0
   25.2130    7.7760   -7.1290   O 0  0  0  0  0  0  0  0  0  0  0  0
   27.1500   10.9840   -3.1000   C 0  0  0  0  0  0  0  0  0  0  0  0
   27.5270   12.2820   -3.4450   C 0  0  0  0  0  0  0  0  0  0  0  0
   27.9360   13.2040   -2.4770   C 0  0  0  0  0  0  0  0  0  0  0  0
   28.4070   14.5380   -2.9470   C 0  0  0  0  0  0  0  0  0  0  0  0
   29.4940   14.6330   -3.8120   C 0  0  0  0  0  0  0  0  0  0  0  0
   29.8610   15.8390   -4.3780   C 0  0  0  0  0  0  0  0  0  0  0  0
   29.1510   17.0050   -4.0950   C 0  0  0  0  0  0  0  0  0  0  0  0
   28.0830   16.9260   -3.1970   C 0  0  0  0  0  0  0  0  0  0  0  0
   27.7190   15.7110   -2.6350   C 0  0  0  0  0  0  0  0  0  0  0  0
   29.4450   18.2970   -4.8000   C 0  0  0  0  0  0  0  0  0  0  0  0
   31.1580   19.5890   -5.9640   C 0  0  0  0  0  0  0  0  0  0  0  0
   32.0100   20.2680   -4.9050   C 0  0  0  0  0  0  0  0  0  0  0  0
   26.6190   10.0690   -4.1430   C 0  0  0  0  0  0  0  0  0  0  0  0
   24.6200   10.6940   -6.9340   C 0  0  0  0  0  0  0  0  0  0  0  0
   23.4710   11.2630   -5.9790   C 0  0  0  0  0  0  0  0  0  0  0  0
   22.5490   12.3750   -6.4680   C 0  0  0  0  0  0  0  0  0  0  0  0
   23.2510   13.6350   -6.9560   C 0  0  0  0  0  0  0  0  0  0  0  0
   23.7100   13.6220   -8.4210   C 0  0  0  0  0  0  0  0  0  0  0  0
   24.7110   12.5360   -8.8940   C 0  0  0  0  0  0  0  0  0  0  0  0
   25.4590   11.7630   -7.8020   C 0  0  0  0  0  0  0  0  0  0  0  0
   25.7680    8.4920   -6.3150   C 0  0  0  0  0  0  0  0  0  0  0  0
   26.7710    7.8950   -5.3450   C 0  0  0  0  0  0  0  0  0  0  0  0
   26.7930    6.3700   -5.2040   C 0  0  0  0  0  0  0  0  0  0  0  0
   25.6680    5.8700   -4.3410   C 0  0  0  0  0  0  0  0  0  0  0  0
   25.0060    6.6420   -3.4700   C 0  0  0  0  0  0  0  0  0  0  0  0
   25.2200    8.1310   -3.3580   C 0  0  0  0  0  0  0  0  0  0  0  0
   26.5660    8.5630   -3.9610   C 0  0  0  0  0  0  0  0  0  0  0  0
  1  3  1  0  0  0  0
  2 22  1  0  0  0  0
  2 23  1  0  0  0  0
  3  4  1  0  0  0  0
  4  7  2  0  0  0  0
  4 15  1  0  0  0  0
  5 24  1  0  0  0  0
  6 22  2  0  0  0  0
  7 10  1  0  0  0  0
  8 11  1  0  0  0  0
  8 25  2  0  0  0  0
  9 24  2  0  0  0  0
 10 13  2  0  0  0  0
 11 26  1  0  0  0  0
 11 33  1  0  0  0  0
 12 33  2  0  0  0  0
 13 14  1  0  0  0  0
 13 25  1  0  0  0  0
 14 15  2  0  0  0  0
 15 16  1  0  0  0  0
 16 17  2  0  0  0  0
 16 21  1  0  0  0  0
 17 18  1  0  0  0  0
 18 19  2  0  0  0  0
 19 20  1  0  0  0  0
 19 22  1  0  0  0  0
 20 21  2  0  0  0  0
 23 24  1  0  0  0  0
 25 39  1  0  0  0  0
 26 27  1  0  0  0  0
 26 32  1  0  0  0  0
 27 28  1  0  0  0  0
 28 29  1  0  0  0  0
 29 30  1  0  0  0  0
 30 31  1  0  0  0  0
 31 32  1  0  0  0  0
 33 34  1  0  0  0  0
 34 35  1  0  0  0  0
 34 39  1  0  0  0  0
 35 36  1  0  0  0  0
 36 37  2  0  0  0  0
 37 38  1  0  0  0  0
 38 39  1  0  0  0  0
M  END
>  <InstanceId>
5G2B_LQY_A_1003

>  <ChemCompId>
LQY

>  <PdbId>
5G2B

>  <ChainId>
A

>  <ResidueNumber>
1003

>  <InsertionCode>


>  <Model>
1

>  <AltIds>


>  <MissingHeavyAtoms>
0

>  <ObservedFormula>
C31 N4 O4

>  <Name>
N-(2-amino-2-oxoethyl)-5'-[(4aR,8aS)-3-cycloheptyl-4-oxo-3,4,4a,5,8,8a-hexahydrophthalazin-1-yl]-2'-methoxy[1,1'-biphenyl]-4-carboxamide

>  <SystematicName>
4-[5-[(4aR,8aS)-3-cycloheptyl-4-oxidanylidene-4a,5,8,8a-tetrahydrophthalazin-1-yl]-2-methoxy-phenyl]-N-(2-azanyl-2-oxidanylidene-ethyl)benzamide

>  <Synonyms>


>  <Type>
NON-POLYMER

>  <Formula>
C31 H36 N4 O4

>  <MolecularWeight>
528.642

>  <ModifiedDate>
2017-11-24

>  <Parent>


>  <OneLetterCode>


>  <SubcomponentList>


>  <AmbiguousFlag>
N

>  <InChI>
InChI=1S/C31H36N4O4/c1-39-27-17-16-22(18-26(27)20-12-14-21(15-13-20)30(37)33-19-28(32)36)29-24-10-6-7-11-25(24)31(38)35(34-29)23-8-4-2-3-5-9-23/h6-7,12-18,23-25H,2-5,8-11,19H2,1H3,(H2,32,36)(H,33,37)/t24-,25+/m0/s1

>  <InChIKey>
VZKJWTFPORBEEH-LOSJGSFVSA-N

>  <SMILES>
COc1ccc(cc1c2ccc(cc2)C(=O)NCC(=O)N)C3=NN(C(=O)[C@H]4[C@@H]3CC=CC4)C5CCCCCC5

$$$$
