5Z7B_VNL_A_201
  RCSB PDB08022003493D
Coordinates from PDB:5Z7B:A:201 Model:1 without hydrogens
 12 12  0  0  0  0            999 V2000
   36.7510   -3.5710   10.7760   C 0  0  0  0  0  0  0  0  0  0  0  0
   35.6020   -4.2780   11.1230   C 0  0  0  0  0  0  0  0  0  0  0  0
   37.2670   -2.5730   11.6210   C 0  0  0  0  0  0  0  0  0  0  0  0
   34.9500   -4.0250   12.3210   C 0  0  0  0  0  0  0  0  0  0  0  0
   36.6190   -2.2800   12.8360   C 0  0  0  0  0  0  0  0  0  0  0  0
   37.0740   -1.3220   13.7100   O 0  0  0  0  0  0  0  0  0  0  0  0
   35.4080   -3.0400   13.1910   C 0  0  0  0  0  0  0  0  0  0  0  0
   37.3940   -3.9060    9.4700   C 0  0  0  0  0  0  0  0  0  0  0  0
   38.3940   -0.7750   13.6090   C 0  0  0  0  0  0  0  0  0  0  0  0
   37.3710   -5.0470    9.0030   O 0  5  0  0  0  0  0  0  0  0  0  0
   38.0500   -2.8540    8.7370   O 0  0  0  0  0  0  0  0  0  0  0  0
   34.7240   -2.8070   14.3520   O 0  0  0  0  0  0  0  0  0  0  0  0
  1  2  2  0  0  0  0
  1  3  1  0  0  0  0
  1  8  1  0  0  0  0
  2  4  1  0  0  0  0
  3  5  2  0  0  0  0
  4  7  2  0  0  0  0
  5  6  1  0  0  0  0
  5  7  1  0  0  0  0
  6  9  1  0  0  0  0
  7 12  1  0  0  0  0
  8 10  1  0  0  0  0
  8 11  2  0  0  0  0
M  CHG  1  10  -1
M  END
>  <InstanceId>
5Z7B_VNL_A_201

>  <ChemCompId>
VNL

>  <PdbId>
5Z7B

>  <ChainId>
A

>  <ResidueNumber>
201

>  <InsertionCode>


>  <Model>
1

>  <AltIds>


>  <MissingHeavyAtoms>
0

>  <ObservedFormula>
C8 O4

>  <Name>
4-HYDROXY-3-METHOXYBENZOATE

>  <SystematicName>
4-hydroxy-3-methoxy-benzoate

>  <Synonyms>
vanillate

>  <Type>
NON-POLYMER

>  <Formula>
C8 H7 O4

>  <MolecularWeight>
167.139

>  <ModifiedDate>
2020-06-17

>  <Parent>


>  <OneLetterCode>


>  <SubcomponentList>


>  <AmbiguousFlag>
N

>  <InChI>
InChI=1S/C8H8O4/c1-12-7-4-5(8(10)11)2-3-6(7)9/h2-4,9H,1H3,(H,10,11)/p-1

>  <InChIKey>
WKOLLVMJNQIZCI-UHFFFAOYSA-M

>  <SMILES>
COc1cc(ccc1O)C(=O)[O-]

$$$$
