6EED_J6A_A_1102
  RCSB PDB08022004303D
Coordinates from PDB:6EED:A:1102 Model:1 without hydrogens
 30 32  0  0  0  0            999 V2000
   16.0340    6.6750   14.6020   C 0  0  0  0  0  0  0  0  0  0  0  0
   15.3080    5.8390   15.7110   C 0  0  0  0  0  0  0  0  0  0  0  0
   15.3570    4.3400   15.3090   C 0  0  0  0  0  0  0  0  0  0  0  0
   14.6570    4.1380   13.9590   C 0  0  0  0  0  0  0  0  0  0  0  0
   15.4150    4.9020   12.9030   C 0  0  0  0  0  0  0  0  0  0  0  0
   15.3780    6.4040   13.2280   C 0  0  0  0  0  0  0  0  0  0  0  0
   16.1080    7.1860   12.0700   C 0  0  0  0  0  0  0  0  0  0  0  0
   16.1140    8.7420   12.3340   C 0  0  0  0  0  0  0  0  0  0  0  0
   17.1170    9.3450   12.7400   O 0  0  0  0  0  0  0  0  0  0  0  0
   14.9270    9.2880   12.1150   N 0  0  0  0  0  0  0  0  0  0  0  0
   14.6100   10.7310   12.2850   C 0  0  0  0  0  0  0  0  0  0  0  0
   13.6890   11.1440   11.1610   C 0  0  0  0  0  0  0  0  0  0  0  0
   12.7580   10.4310   10.7610   O 0  0  0  0  0  0  0  0  0  0  0  0
   14.0220   12.3000   10.6020   N 0  0  0  0  0  0  0  0  0  0  0  0
   13.1550   12.7570    9.5830   O 0  0  0  0  0  0  0  0  0  0  0  0
   14.1040   11.0010   13.6170   C 0  0  0  0  0  0  0  0  0  0  0  0
   13.7970    9.9700   14.4980   C 0  0  0  0  0  0  0  0  0  0  0  0
   13.3750   10.2850   15.8060   C 0  0  0  0  0  0  0  0  0  0  0  0
   13.9790   12.3260   14.0400   C 0  0  0  0  0  0  0  0  0  0  0  0
   13.5590   12.6410   15.3400   C 0  0  0  0  0  0  0  0  0  0  0  0
   13.2440   11.6090   16.2360   C 0  0  0  0  0  0  0  0  0  0  0  0
   12.8930   11.8750   17.5920   C 0  0  0  0  0  0  0  0  0  0  0  0
   11.7630   11.3700   18.2470   C 0  0  0  0  0  0  0  0  0  0  0  0
   11.5670   11.6560   19.5960   C 0  0  0  0  0  0  0  0  0  0  0  0
   10.5110   11.2320   20.2520   F 0  0  0  0  0  0  0  0  0  0  0  0
   12.4800   12.4030   20.3020   C 0  0  0  0  0  0  0  0  0  0  0  0
   12.2440   12.6990   21.6260   F 0  0  0  0  0  0  0  0  0  0  0  0
   13.5970   12.9120   19.6890   C 0  0  0  0  0  0  0  0  0  0  0  0
   14.5310   13.6260   20.4480   F 0  0  0  0  0  0  0  0  0  0  0  0
   13.8250   12.6200   18.3470   C 0  0  0  0  0  0  0  0  0  0  0  0
 15 14  1  0  0  0  0
 14 12  1  0  0  0  0
 13 12  2  0  0  0  0
 12 11  1  0  0  0  0
  7  8  1  0  0  0  0
  7  6  1  0  0  0  0
 10 11  1  0  0  0  0
 10  8  1  0  0  0  0
 11 16  1  0  0  0  0
  8  9  2  0  0  0  0
  5  6  1  0  0  0  0
  5  4  1  0  0  0  0
  6  1  1  0  0  0  0
 16 19  2  0  0  0  0
 16 17  1  0  0  0  0
  4  3  1  0  0  0  0
 19 20  1  0  0  0  0
 17 18  2  0  0  0  0
  1  2  1  0  0  0  0
  3  2  1  0  0  0  0
 20 21  2  0  0  0  0
 18 21  1  0  0  0  0
 21 22  1  0  0  0  0
 22 23  2  0  0  0  0
 22 30  1  0  0  0  0
 23 24  1  0  0  0  0
 30 28  2  0  0  0  0
 24 25  1  0  0  0  0
 24 26  2  0  0  0  0
 28 26  1  0  0  0  0
 28 29  1  0  0  0  0
 26 27  1  0  0  0  0
M  END
>  <InstanceId>
6EED_J6A_A_1102

>  <ChemCompId>
J6A

>  <PdbId>
6EED

>  <ChainId>
A

>  <ResidueNumber>
1102

>  <InsertionCode>


>  <Model>
1

>  <AltIds>


>  <MissingHeavyAtoms>
0

>  <ObservedFormula>
C22 N2 O3 F3

>  <Name>
(2R)-2-[(cyclohexylacetyl)amino]-N-hydroxy-2-(3',4',5'-trifluoro[1,1'-biphenyl]-4-yl)acetamide

>  <SystematicName>
(2~{R})-2-(2-cyclohexylethanoylamino)-~{N}-oxidanyl-2-[4-[3,4,5-tris(fluoranyl)phenyl]phenyl]ethanamide

>  <Synonyms>


>  <Type>
NON-POLYMER

>  <Formula>
C22 H23 F3 N2 O3

>  <MolecularWeight>
420.425

>  <ModifiedDate>
2018-12-21

>  <Parent>


>  <OneLetterCode>


>  <SubcomponentList>


>  <AmbiguousFlag>
N

>  <InChI>
InChI=1S/C22H23F3N2O3/c23-17-11-16(12-18(24)20(17)25)14-6-8-15(9-7-14)21(22(29)27-30)26-19(28)10-13-4-2-1-3-5-13/h6-9,11-13,21,30H,1-5,10H2,(H,26,28)(H,27,29)/t21-/m1/s1

>  <InChIKey>
RSVDOQRQHCVNDT-OAQYLSRUSA-N

>  <SMILES>
c1cc(ccc1c2cc(c(c(c2)F)F)F)[C@H](C(=O)NO)NC(=O)CC3CCCCC3

$$$$
