6D55_FWA_B_2001
  RCSB PDB08022004203D
Coordinates from PDB:6D55:B:2001 Model:1 without hydrogens
 34 39  0  0  0  0            999 V2000
   36.9590   28.6180   26.7860   N 0  0  0  0  0  0  0  0  0  0  0  0
   35.8510   28.0030   21.5120   N 0  0  0  0  0  0  0  0  0  0  0  0
   39.4120   28.6100   26.5080   C 0  0  0  0  0  0  0  0  0  0  0  0
   35.6950   28.9220   26.2940   C 0  0  0  0  0  0  0  0  0  0  0  0
   34.6540   29.3960   27.1280   C 0  0  0  0  0  0  0  0  0  0  0  0
   33.4330   29.6370   26.5750   C 0  0  0  0  0  0  0  0  0  0  0  0
   33.0240   29.5050   25.3160   C 0  0  0  0  0  0  0  0  0  0  0  0
   35.3450   28.7500   24.9510   C 0  0  0  0  0  0  0  0  0  0  0  0
   36.5540   26.7980   19.9970   C 0  0  0  0  0  0  0  0  0  0  0  0
   37.1310   27.2940   18.6170   C 0  0  0  0  0  0  0  0  0  0  0  0
   32.8780   28.7140   22.2880   C 0  0  0  0  0  0  0  0  0  0  0  0
   33.3110   32.2960   21.0120   C 0  0  0  0  0  0  0  0  0  0  0  0
   34.0390   33.5840   21.3430   C 0  0  0  0  0  0  0  0  0  0  0  0
   32.4730   32.2330   19.9180   C 0  0  0  0  0  0  0  0  0  0  0  0
   30.8090   31.1070   18.4440   C 0  0  0  0  0  0  0  0  0  0  0  0
   39.5730   28.5650   27.9810   N 0  0  0  0  0  0  0  0  0  0  0  0
   40.8750   27.8970   28.3280   C 0  0  0  0  0  0  0  0  0  0  0  0
   38.4400   27.8310   28.6370   C 0  0  0  0  0  0  0  0  0  0  0  0
   35.4050   28.2660   22.8400   C 0  0  0  0  0  0  0  0  0  0  0  0
   37.1620   27.3310   21.2930   C 0  0  0  0  0  0  0  0  0  0  0  0
   36.7340   25.3320   19.5760   C 0  0  0  0  0  0  0  0  0  0  0  0
   35.1200   27.2570   20.4340   C 0  0  0  0  0  0  0  0  0  0  0  0
   32.8050   29.9500   21.4490   C 0  0  0  0  0  0  0  0  0  0  0  0
   33.5110   31.1600   21.7920   C 0  0  0  0  0  0  0  0  0  0  0  0
   37.0710   28.5440   28.2870   C 0  0  0  0  0  0  0  0  0  0  0  0
   31.7740   31.0650   19.6070   C 0  0  0  0  0  0  0  0  0  0  0  0
   31.9310   29.9300   20.3510   C 0  0  0  0  0  0  0  0  0  0  0  0
   38.0670   29.3140   26.1770   C 0  0  0  0  0  0  0  0  0  0  0  0
   34.0660   29.0120   24.4830   C 0  0  0  0  0  0  0  0  0  0  0  0
   32.2810   33.2890   19.1220   F 0  0  0  0  0  0  0  0  0  0  0  0
   36.2110   28.2750   23.9250   N 0  0  0  0  0  0  0  0  0  0  0  0
   37.1460   25.8400   18.1620   N 0  0  0  0  0  0  0  0  0  0  0  0
   34.0690   28.6820   23.1180   N 0  0  0  0  0  0  0  0  0  0  0  0
   32.1380   30.1700   27.6950  Cl 0  0  0  0  0  0  0  0  0  0  0  0
 32 10  1  0  0  0  0
 32 21  1  0  0  0  0
 15 26  1  0  0  0  0
 10  9  1  0  0  0  0
 30 14  1  0  0  0  0
 21  9  1  0  0  0  0
 26 14  2  0  0  0  0
 26 27  1  0  0  0  0
 14 12  1  0  0  0  0
  9 22  1  0  0  0  0
  9 20  1  0  0  0  0
 27 23  2  0  0  0  0
 22  2  1  0  0  0  0
 12 13  1  0  0  0  0
 12 24  2  0  0  0  0
 20  2  1  0  0  0  0
 23 24  1  0  0  0  0
 23 11  1  0  0  0  0
  2 19  1  0  0  0  0
 11 33  1  0  0  0  0
 19 33  1  0  0  0  0
 19 31  2  0  0  0  0
 33 29  1  0  0  0  0
 31  8  1  0  0  0  0
 29  8  2  0  0  0  0
 29  7  1  0  0  0  0
  8  4  1  0  0  0  0
  7  6  2  0  0  0  0
 28  3  1  0  0  0  0
 28  1  1  0  0  0  0
  4  1  1  0  0  0  0
  4  5  2  0  0  0  0
  3 16  1  0  0  0  0
  6  5  1  0  0  0  0
  6 34  1  0  0  0  0
  1 25  1  0  0  0  0
 16 17  1  0  0  0  0
 16 18  1  0  0  0  0
 25 18  1  0  0  0  0
M  END
>  <InstanceId>
6D55_FWA_B_2001

>  <ChemCompId>
FWA

>  <PdbId>
6D55

>  <ChainId>
B

>  <ResidueNumber>
2001

>  <InsertionCode>


>  <Model>
1

>  <AltIds>


>  <MissingHeavyAtoms>
0

>  <ObservedFormula>
C26 N6 F Cl

>  <Name>
6-chloro-2-(2,6-diazaspiro[3.3]heptan-2-yl)-1-[(4-fluoro-3,5-dimethylphenyl)methyl]-4-(4-methylpiperazin-1-yl)-1H-benzimidazole

>  <SystematicName>
6-chloranyl-2-(2,6-diazaspiro[3.3]heptan-2-yl)-1-[(4-fluoranyl-3,5-dimethyl-phenyl)methyl]-4-(4-methylpiperazin-1-yl)benzimidazole

>  <Synonyms>


>  <Type>
NON-POLYMER

>  <Formula>
C26 H32 Cl F N6

>  <MolecularWeight>
483.024

>  <ModifiedDate>
2018-09-14

>  <Parent>


>  <OneLetterCode>


>  <SubcomponentList>


>  <AmbiguousFlag>
N

>  <InChI>
InChI=1S/C26H32ClFN6/c1-17-8-19(9-18(2)23(17)28)12-34-22-11-20(27)10-21(32-6-4-31(3)5-7-32)24(22)30-25(34)33-15-26(16-33)13-29-14-26/h8-11,29H,4-7,12-16H2,1-3H3

>  <InChIKey>
JWZAQUXBYYOGFA-UHFFFAOYSA-N

>  <SMILES>
Cc1cc(cc(c1F)C)Cn2c3cc(cc(c3nc2N4CC5(C4)CNC5)N6CCN(CC6)C)Cl

$$$$
