3M37_M37_A_301
  RCSB PDB08012019453D
Coordinates from PDB:3M37:A:301 Model:1 without hydrogens
 37 40  0  0  0  0            999 V2000
   11.3150   45.6470   64.9240   C 0  0  0  0  0  0  0  0  0  0  0  0
    2.8260   44.9640   64.8540   F 0  0  0  0  0  0  0  0  0  0  0  0
    7.1720   44.4470   64.4720   N 0  0  0  0  0  0  0  0  0  0  0  0
    6.4450   38.3020   56.5730   S 0  0  0  0  0  0  0  0  0  0  0  0
   10.4370   46.2580   63.9360   C 0  0  0  0  0  0  0  0  0  0  0  0
    3.3990   43.7710   66.5540   F 0  0  0  0  0  0  0  0  0  0  0  0
    6.5940   39.8920   56.3900   N 0  0  0  0  0  0  0  0  0  0  0  0
    9.0410   45.8790   63.7470   C 0  0  0  0  0  0  0  0  0  0  0  0
    3.9540   45.8430   66.5040   F 0  0  0  0  0  0  0  0  0  0  0  0
    9.4880   42.7560   67.7260   N 0  0  0  0  0  0  0  0  0  0  0  0
    8.3670   42.8150   62.5050   O 0  0  0  0  0  0  0  0  0  0  0  0
    8.5030   44.8260   64.6030   C 0  0  0  0  0  0  0  0  0  0  0  0
    7.7220   42.5810   59.8210   F 0  0  0  0  0  0  0  0  0  0  0  0
    5.5750   38.0820   57.6770   O 0  0  0  0  0  0  0  0  0  0  0  0
    9.3600   44.2100   65.5990   C 0  0  0  0  0  0  0  0  0  0  0  0
    6.4340   41.6570   62.1760   N 0  0  0  0  0  0  0  0  0  0  0  0
    6.0800   37.7860   55.2840   O 0  0  0  0  0  0  0  0  0  0  0  0
   10.7730   44.6080   65.7680   C 0  0  0  0  0  0  0  0  0  0  0  0
    6.2240   45.0220   65.2600   N 0  0  0  0  0  0  0  0  0  0  0  0
    6.9580   40.8000   61.2380   C 0  0  0  0  0  0  0  0  0  0  0  0
    7.1810   42.6370   62.7690   C 0  0  0  0  0  0  0  0  0  0  0  0
    8.7750   43.1040   66.4720   C 0  0  0  0  0  0  0  0  0  0  0  0
    5.0350   44.4320   65.0300   C 0  0  0  0  0  0  0  0  0  0  0  0
    3.7500   44.7580   65.7620   C 0  0  0  0  0  0  0  0  0  0  0  0
    5.1920   43.4300   64.0340   C 0  0  0  0  0  0  0  0  0  0  0  0
    6.5790   43.4700   63.7130   C 0  0  0  0  0  0  0  0  0  0  0  0
    8.2150   40.3770   59.0650   C 0  0  0  0  0  0  0  0  0  0  0  0
   10.0230   37.4150   58.5730   C 0  0  0  0  0  0  0  0  0  0  0  0
    8.1180   38.9530   59.3290   C 0  0  0  0  0  0  0  0  0  0  0  0
    8.7040   38.0100   58.3100   C 0  0  0  0  0  0  0  0  0  0  0  0
    7.4450   38.4750   60.5290   C 0  0  0  0  0  0  0  0  0  0  0  0
    8.0620   37.6770   57.0370   C 0  0  0  0  0  0  0  0  0  0  0  0
    6.8570   39.3740   61.4950   C 0  0  0  0  0  0  0  0  0  0  0  0
   10.6350   36.5420   57.5790   C 0  0  0  0  0  0  0  0  0  0  0  0
    8.6890   36.7940   56.0450   C 0  0  0  0  0  0  0  0  0  0  0  0
    9.9900   36.2130   56.3150   C 0  0  0  0  0  0  0  0  0  0  0  0
    7.6260   41.2690   60.0320   C 0  0  0  0  0  0  0  0  0  0  0  0
  1 18  1  0  0  0  0
  2 24  1  0  0  0  0
  3 12  1  0  0  0  0
  3 19  1  0  0  0  0
  4 32  1  0  0  0  0
  4 14  2  0  0  0  0
  5  1  2  0  0  0  0
  7  4  1  0  0  0  0
  8  5  1  0  0  0  0
  8 12  2  0  0  0  0
 11 21  2  0  0  0  0
 12 15  1  0  0  0  0
 13 37  1  0  0  0  0
 15 18  2  0  0  0  0
 15 22  1  0  0  0  0
 16 21  1  0  0  0  0
 17  4  2  0  0  0  0
 20 16  1  0  0  0  0
 20 33  1  0  0  0  0
 21 26  1  0  0  0  0
 22 10  1  0  0  0  0
 23 19  2  0  0  0  0
 23 24  1  0  0  0  0
 24  6  1  0  0  0  0
 24  9  1  0  0  0  0
 25 23  1  0  0  0  0
 26  3  1  0  0  0  0
 26 25  2  0  0  0  0
 27 29  2  0  0  0  0
 27 37  1  0  0  0  0
 29 31  1  0  0  0  0
 30 28  1  0  0  0  0
 30 29  1  0  0  0  0
 31 33  2  0  0  0  0
 32 30  2  0  0  0  0
 34 28  2  0  0  0  0
 35 32  1  0  0  0  0
 35 36  2  0  0  0  0
 36 34  1  0  0  0  0
 37 20  2  0  0  0  0
M  END
>  <InstanceId>
3M37_M37_A_301

>  <ChemCompId>
M37

>  <PdbId>
3M37

>  <ChainId>
A

>  <ResidueNumber>
301

>  <InsertionCode>


>  <Model>
1

>  <AltIds>


>  <MissingHeavyAtoms>
0

>  <ObservedFormula>
C24 N5 O3 S F4

>  <Name>
1-[2-(aminomethyl)phenyl]-N-(3-fluoro-2'-sulfamoylbiphenyl-4-yl)-3-(trifluoromethyl)-1H-pyrazole-5-carboxamide

>  <SystematicName>
2-[2-(aminomethyl)phenyl]-N-[2-fluoro-4-(2-sulfamoylphenyl)phenyl]-5-(trifluoromethyl)pyrazole-3-carboxamide

>  <Synonyms>


>  <Type>
NON-POLYMER

>  <Formula>
C24 H19 F4 N5 O3 S

>  <MolecularWeight>
533.498

>  <ModifiedDate>
2011-06-04

>  <Parent>


>  <OneLetterCode>


>  <SubcomponentList>


>  <AmbiguousFlag>
N

>  <InChI>
InChI=1S/C24H19F4N5O3S/c25-17-11-14(16-6-2-4-8-21(16)37(30,35)36)9-10-18(17)31-23(34)20-12-22(24(26,27)28)32-33(20)19-7-3-1-5-15(19)13-29/h1-12H,13,29H2,(H,31,34)(H2,30,35,36)

>  <InChIKey>
TYPXEIGMGZWOGB-UHFFFAOYSA-N

>  <SMILES>
c1ccc(c(c1)CN)n2c(cc(n2)C(F)(F)F)C(=O)Nc3ccc(cc3F)c4ccccc4S(=O)(=O)N

$$$$
