5O9O_9PB_A_601
  RCSB PDB08022002393D
Coordinates from PDB:5O9O:A:601 Model:1 without hydrogens
 51 56  0  0  0  0            999 V2000
   16.1760   13.5730   21.9470   C 0  0  0  0  0  0  0  0  0  0  0  0
   15.7400   12.1400   22.1520   C 0  0  0  0  0  0  0  0  0  0  0  0
   16.7770   11.4110   23.0280   C 0  0  0  0  0  0  0  0  0  0  0  0
   15.1570   14.2730   21.1060   C 0  0  0  0  0  0  0  0  0  0  0  0
    3.6370    7.4830   16.9230   C 0  0  0  0  0  0  0  0  0  0  0  0
    3.2150    7.9890   15.6940   C 0  0  0  0  0  0  0  0  0  0  0  0
    3.4520    7.2740   14.5270   C 0  0  0  0  0  0  0  0  0  0  0  0
    3.0310    7.7820   13.3010   C 0  0  0  0  0  0  0  0  0  0  0  0
    2.3680    9.0020   13.2350   C 0  0  0  0  0  0  0  0  0  0  0  0
    2.1260    9.7200   14.3990   C 0  0  0  0  0  0  0  0  0  0  0  0
    2.5510    9.2130   15.6210   C 0  0  0  0  0  0  0  0  0  0  0  0
    2.3050    9.9350   16.7780   C 0  0  0  0  0  0  0  0  0  0  0  0
    2.7280    9.4340   18.0040   C 0  0  0  0  0  0  0  0  0  0  0  0
    3.3860    8.2120   18.0840   C 0  0  0  0  0  0  0  0  0  0  0  0
    3.7940    7.7580   19.3370   C 0  0  0  0  0  0  0  0  0  0  0  0
    5.0330    8.4060   19.6790   O 0  0  0  0  0  0  0  0  0  0  0  0
    5.3120    8.2130   21.0500   C 0  0  0  0  0  0  0  0  0  0  0  0
    6.5280    9.0320   21.4760   C 0  0  0  0  0  0  0  0  0  0  0  0
    7.6990    8.5680   21.8780   C 0  0  0  0  0  0  0  0  0  0  0  0
    6.5690   10.3510   21.5760   N 0  0  0  0  0  0  0  0  0  0  0  0
    7.6880   10.6690   21.9620   N 0  0  0  0  0  0  0  0  0  0  0  0
    8.4270    9.6790   22.0820   N 0  0  0  0  0  0  0  0  0  0  0  0
    9.7480    9.9020   22.6740   C 0  0  0  0  0  0  0  0  0  0  0  0
   10.3140   11.2310   22.3000   C 0  0  0  0  0  0  0  0  0  0  0  0
   10.5980   11.0960   20.9040   O 0  0  0  0  0  0  0  0  0  0  0  0
    9.5580    9.8690   24.0720   O 0  0  0  0  0  0  0  0  0  0  0  0
   10.7780   10.0680   24.8210   C 0  0  0  0  0  0  0  0  0  0  0  0
   10.2460   10.3420   26.2320   C 0  0  0  0  0  0  0  0  0  0  0  0
    9.4350    9.2720   26.6490   O 0  0  0  0  0  0  0  0  0  0  0  0
   11.3590   11.3750   24.4480   C 0  0  0  0  0  0  0  0  0  0  0  0
   12.5900   11.5100   25.1770   O 0  0  0  0  0  0  0  0  0  0  0  0
   11.6400   11.3790   22.9530   C 0  0  0  0  0  0  0  0  0  0  0  0
   12.1950   12.6620   22.6080   O 0  0  0  0  0  0  0  0  0  0  0  0
   13.4620   12.7250   21.9800   C 0  0  0  0  0  0  0  0  0  0  0  0
   13.7910   14.2030   21.7780   C 0  0  0  0  0  0  0  0  0  0  0  0
   12.7640   14.7670   20.9200   O 0  0  0  0  0  0  0  0  0  0  0  0
   14.4650   12.0790   22.8000   O 0  0  0  0  0  0  0  0  0  0  0  0
   16.8580   12.0720   24.2780   O 0  0  0  0  0  0  0  0  0  0  0  0
   17.3780   13.5130   21.1660   O 0  0  0  0  0  0  0  0  0  0  0  0
   15.5350   15.6180   20.8950   O 0  0  0  0  0  0  0  0  0  0  0  0
   15.2340   16.2290   19.6750   C 0  0  0  0  0  0  0  0  0  0  0  0
   15.9940   15.4890   18.7470   O 0  0  0  0  0  0  0  0  0  0  0  0
   15.8030   16.0010   17.4060   C 0  0  0  0  0  0  0  0  0  0  0  0
   16.5540   15.0350   16.4500   C 0  0  0  0  0  0  0  0  0  0  0  0
   17.9510   14.9420   16.7970   O 0  0  0  0  0  0  0  0  0  0  0  0
   16.2640   17.4690   17.3710   C 0  0  0  0  0  0  0  0  0  0  0  0
   15.9720   17.9900   16.0720   O 0  0  0  0  0  0  0  0  0  0  0  0
   15.4630   18.2980   18.3620   C 0  0  0  0  0  0  0  0  0  0  0  0
   16.0400   19.5930   18.4430   O 0  0  0  0  0  0  0  0  0  0  0  0
   15.7030   17.6870   19.7180   C 0  0  0  0  0  0  0  0  0  0  0  0
   15.0070   18.3620   20.7810   O 0  0  0  0  0  0  0  0  0  0  0  0
  9  8  2  0  0  0  0
  9 10  1  0  0  0  0
  8  7  1  0  0  0  0
 10 11  2  0  0  0  0
  7  6  2  0  0  0  0
 11  6  1  0  0  0  0
 11 12  1  0  0  0  0
  6  5  1  0  0  0  0
 47 46  1  0  0  0  0
 44 45  1  0  0  0  0
 44 43  1  0  0  0  0
 12 13  2  0  0  0  0
  5 14  2  0  0  0  0
 46 43  1  0  0  0  0
 46 48  1  0  0  0  0
 43 42  1  0  0  0  0
 13 14  1  0  0  0  0
 14 15  1  0  0  0  0
 48 49  1  0  0  0  0
 48 50  1  0  0  0  0
 42 41  1  0  0  0  0
 15 16  1  0  0  0  0
 41 50  1  0  0  0  0
 41 40  1  0  0  0  0
 16 17  1  0  0  0  0
 50 51  1  0  0  0  0
 40  4  1  0  0  0  0
 25 24  1  0  0  0  0
 36 35  1  0  0  0  0
 17 18  1  0  0  0  0
  4 35  1  0  0  0  0
  4  1  1  0  0  0  0
 39  1  1  0  0  0  0
 18 20  1  0  0  0  0
 18 19  2  0  0  0  0
 20 21  2  0  0  0  0
 35 34  1  0  0  0  0
 19 22  1  0  0  0  0
  1  2  1  0  0  0  0
 21 22  1  0  0  0  0
 34 33  1  0  0  0  0
 34 37  1  0  0  0  0
 22 23  1  0  0  0  0
  2 37  1  0  0  0  0
  2  3  1  0  0  0  0
 24 23  1  0  0  0  0
 24 32  1  0  0  0  0
 33 32  1  0  0  0  0
 23 26  1  0  0  0  0
 32 30  1  0  0  0  0
  3 38  1  0  0  0  0
 26 27  1  0  0  0  0
 30 27  1  0  0  0  0
 30 31  1  0  0  0  0
 27 28  1  0  0  0  0
 28 29  1  0  0  0  0
M  END
>  <InstanceId>
5O9O_9PB_A_601

>  <ChemCompId>
9PB

>  <PdbId>
5O9O

>  <ChainId>
A

>  <ResidueNumber>
601

>  <InsertionCode>


>  <Model>
1

>  <AltIds>


>  <MissingHeavyAtoms>
0

>  <ObservedFormula>
C32 N3 O16

>  <Name>
(2~{R},3~{S},4~{S},5~{R},6~{S})-2-(hydroxymethyl)-6-[(2~{R},3~{R},4~{S},5~{R},6~{S})-2-(hydroxymethyl)-6-[(2~{R},3~{R},4~{S},5~{R},6~{R})-2-(hydroxymethyl)-6-[4-(naphthalen-2-ylmethoxymethyl)-1,2,3-triazol-1-yl]-3,5-bis(oxidanyl)oxan-4-yl]oxy-3,5-bis(oxidanyl)oxan-4-yl]oxy-oxane-3,4,5-triol

>  <SystematicName>
(2~{R},3~{S},4~{S},5~{R},6~{S})-2-(hydroxymethyl)-6-[(2~{R},3~{R},4~{S},5~{R},6~{S})-2-(hydroxymethyl)-6-[(2~{R},3~{R},4~{S},5~{R},6~{R})-2-(hydroxymethyl)-6-[4-(naphthalen-2-ylmethoxymethyl)-1,2,3-triazol-1-yl]-3,5-bis(oxidanyl)oxan-4-yl]oxy-3,5-bis(oxidanyl)oxan-4-yl]oxy-oxane-3,4,5-triol

>  <Synonyms>


>  <Type>
NON-POLYMER

>  <Formula>
C32 H43 N3 O16

>  <MolecularWeight>
725.694

>  <ModifiedDate>
2018-04-27

>  <Parent>


>  <OneLetterCode>


>  <SubcomponentList>


>  <AmbiguousFlag>
N

>  <InChI>
InChI=1S/C32H43N3O16/c36-9-18-21(39)24(42)25(43)31(48-18)51-29-23(41)20(11-38)49-32(27(29)45)50-28-22(40)19(10-37)47-30(26(28)44)35-8-17(33-34-35)13-46-12-14-5-6-15-3-1-2-4-16(15)7-14/h1-8,18-32,36-45H,9-13H2/t18-,19-,20-,21-,22-,23-,24+,25-,26-,27-,28+,29+,30-,31+,32+/m1/s1

>  <InChIKey>
INTPLNBRTDNBOM-DGUZUYFASA-N

>  <SMILES>
c1ccc2cc(ccc2c1)COCc3cn(nn3)[C@H]4[C@@H]([C@H]([C@@H]([C@H](O4)CO)O)O[C@H]5[C@@H]([C@H]([C@@H]([C@H](O5)CO)O)O[C@H]6[C@@H]([C@H]([C@@H]([C@H](O6)CO)O)O)O)O)O

$$$$
