2QG2_A91_A_300
  RCSB PDB08012017493D
Coordinates from PDB:2QG2:A:300 Model:1 without hydrogens
 24 26  0  0  0  0            999 V2000
    4.7270   29.3880   23.2380   C 0  0  0  0  0  0  0  0  0  0  0  0
    4.6090   30.5130   24.2690   C 0  0  0  0  0  0  0  0  0  0  0  0
    5.8680   31.2160   24.0760   N 0  0  0  0  0  0  0  0  0  0  0  0
    6.6810   30.6150   23.1650   C 0  0  0  0  0  0  0  0  0  0  0  0
    6.0120   29.6240   22.5660   O 0  0  0  0  0  0  0  0  0  0  0  0
    7.8220   30.9050   22.9030   O 0  0  0  0  0  0  0  0  0  0  0  0
    6.3140   32.3780   24.6500   N 0  0  0  0  0  0  0  0  0  0  0  0
    5.4300   33.2050   25.1140   C 0  0  0  0  0  0  0  0  0  0  0  0
    5.7870   34.4950   25.7130   C 0  0  0  0  0  0  0  0  0  0  0  0
    4.8140   35.5850   25.8450   C 0  0  0  0  0  0  0  0  0  0  0  0
    5.1940   36.8430   26.4270   C 0  0  0  0  0  0  0  0  0  0  0  0
    6.5390   37.0310   26.8820   C 0  0  0  0  0  0  0  0  0  0  0  0
    7.5090   35.9690   26.7620   C 0  0  0  0  0  0  0  0  0  0  0  0
    7.1350   34.7080   26.1800   C 0  0  0  0  0  0  0  0  0  0  0  0
    3.4500   35.4450   25.4020   C 0  0  0  0  0  0  0  0  0  0  0  0
    2.3500   35.3160   25.0040   C 0  0  0  0  0  0  0  0  0  0  0  0
    1.0430   35.2300   24.4770   C 0  0  0  0  0  0  0  0  0  0  0  0
    0.8770   35.7920   23.2010   C 0  0  0  0  0  0  0  0  0  0  0  0
   -0.4260   35.7140   22.6760   C 0  0  0  0  0  0  0  0  0  0  0  0
   -1.4840   35.1360   23.3400   N 0  0  0  0  0  0  0  0  0  0  0  0
   -1.2080   34.6200   24.5790   C 0  0  0  0  0  0  0  0  0  0  0  0
    0.0120   34.6390   25.1790   N 0  0  0  0  0  0  0  0  0  0  0  0
   -0.6980   36.2870   21.3230   C 0  0  0  0  0  0  0  0  0  0  0  0
   -2.1930   34.0640   25.2440   N 0  0  0  0  0  0  0  0  0  0  0  0
  1  5  1  0  0  0  0
  1  2  2  0  0  0  0
  2  3  1  0  0  0  0
  3  4  1  0  0  0  0
  3  7  1  0  0  0  0
  4  5  1  0  0  0  0
  4  6  2  0  0  0  0
  7  8  1  0  0  0  0
  8  9  1  0  0  0  0
  9 10  2  0  0  0  0
  9 14  1  0  0  0  0
 10 15  1  0  0  0  0
 10 11  1  0  0  0  0
 11 12  2  0  0  0  0
 12 13  1  0  0  0  0
 13 14  2  0  0  0  0
 15 16  3  0  0  0  0
 16 17  1  0  0  0  0
 17 18  1  0  0  0  0
 17 22  2  0  0  0  0
 18 19  2  0  0  0  0
 19 23  1  0  0  0  0
 19 20  1  0  0  0  0
 20 21  2  0  0  0  0
 21 22  1  0  0  0  0
 21 24  1  0  0  0  0
M  END
>  <InstanceId>
2QG2_A91_A_300

>  <ChemCompId>
A91

>  <PdbId>
2QG2

>  <ChainId>
A

>  <ResidueNumber>
300

>  <InsertionCode>


>  <Model>
1

>  <AltIds>


>  <MissingHeavyAtoms>
0

>  <ObservedFormula>
C17 N5 O2

>  <Name>
3-({2-[(2-AMINO-6-METHYLPYRIMIDIN-4-YL)ETHYNYL]BENZYL}AMINO)-1,3-OXAZOL-2(3H)-ONE

>  <SystematicName>
3-[[2-[2-(2-amino-6-methyl-pyrimidin-4-yl)ethynyl]phenyl]methylamino]-1,3-oxazol-2-one

>  <Synonyms>


>  <Type>
NON-POLYMER

>  <Formula>
C17 H15 N5 O2

>  <MolecularWeight>
321.333

>  <ModifiedDate>
2011-06-04

>  <Parent>


>  <OneLetterCode>


>  <SubcomponentList>


>  <AmbiguousFlag>


>  <InChI>
InChI=1S/C17H15N5O2/c1-12-10-15(21-16(18)20-12)7-6-13-4-2-3-5-14(13)11-19-22-8-9-24-17(22)23/h2-5,8-10,19H,11H2,1H3,(H2,18,20,21)

>  <InChIKey>
ZUJWSOPIDUWELP-UHFFFAOYSA-N

>  <SMILES>
Cc1cc(nc(n1)N)C#Cc2ccccc2CNN3C=COC3=O

$$$$
