5U49_S2L_A_200
  RCSB PDB08022003093D
Coordinates from PDB:5U49:A:200 Model:1 without hydrogens
 18 19  0  0  0  0            999 V2000
   44.5830   79.7230   42.5190   C 0  0  0  0  0  0  0  0  0  0  0  0
   43.6560   79.0270   41.7570   C 0  0  0  0  0  0  0  0  0  0  0  0
   43.7160   77.6410   41.7990   C 0  0  0  0  0  0  0  0  0  0  0  0
   44.6400   76.9350   42.5640   C 0  0  0  0  0  0  0  0  0  0  0  0
   45.5350   77.7040   43.3000   C 0  0  0  0  0  0  0  0  0  0  0  0
   45.5380   79.0900   43.3040   C 0  0  0  0  0  0  0  0  0  0  0  0
   46.4700   79.8070   44.0780   O 0  0  0  0  0  0  0  0  0  0  0  0
   44.8240   75.4340   42.7040   C 0  0  0  0  0  0  0  0  0  0  0  0
   44.0440   74.4950   42.1450   C 0  0  0  0  0  0  0  0  0  0  0  0
   44.2170   72.9890   42.2610   C 0  0  0  0  0  0  0  0  0  0  0  0
   44.1990   72.3130   41.0500   C 0  0  0  0  0  0  0  0  0  0  0  0
   44.3280   70.9430   40.9010   C 0  0  0  0  0  0  0  0  0  0  0  0
   44.4980   70.1210   42.0000   C 0  0  0  0  0  0  0  0  0  0  0  0
   44.5230   70.7620   43.2160   C 0  0  0  0  0  0  0  0  0  0  0  0
   44.3850   72.1280   43.3390   C 0  0  0  0  0  0  0  0  0  0  0  0
   44.4240   72.7750   45.0220  Cl 0  0  0  0  0  0  0  0  0  0  0  0
   44.6350   68.7460   41.8700   O 0  0  0  0  0  0  0  0  0  0  0  0
   42.6880   79.6590   40.9570   O 0  0  0  0  0  0  0  0  0  0  0  0
 12 11  2  0  0  0  0
 12 13  1  0  0  0  0
 18  2  1  0  0  0  0
 11 10  1  0  0  0  0
  2  3  2  0  0  0  0
  2  1  1  0  0  0  0
  3  4  1  0  0  0  0
 17 13  1  0  0  0  0
 13 14  2  0  0  0  0
  9 10  1  0  0  0  0
  9  8  2  0  0  0  0
 10 15  2  0  0  0  0
  1  6  2  0  0  0  0
  4  8  1  0  0  0  0
  4  5  2  0  0  0  0
 14 15  1  0  0  0  0
  5  6  1  0  0  0  0
  6  7  1  0  0  0  0
 15 16  1  0  0  0  0
M  END
>  <InstanceId>
5U49_S2L_A_200

>  <ChemCompId>
S2L

>  <PdbId>
5U49

>  <ChainId>
A

>  <ResidueNumber>
200

>  <InsertionCode>


>  <Model>
1

>  <AltIds>


>  <MissingHeavyAtoms>
0

>  <ObservedFormula>
C14 O3 Cl

>  <Name>
5-[(E)-2-(2-chloro-4-hydroxyphenyl)ethenyl]benzene-1,3-diol

>  <SystematicName>
5-[(~{E})-2-(2-chloranyl-4-oxidanyl-phenyl)ethenyl]benzene-1,3-diol

>  <Synonyms>


>  <Type>
NON-POLYMER

>  <Formula>
C14 H11 Cl O3

>  <MolecularWeight>
262.688

>  <ModifiedDate>
2017-09-22

>  <Parent>


>  <OneLetterCode>


>  <SubcomponentList>


>  <AmbiguousFlag>
N

>  <InChI>
InChI=1S/C14H11ClO3/c15-14-8-11(16)4-3-10(14)2-1-9-5-12(17)7-13(18)6-9/h1-8,16-18H/b2-1+

>  <InChIKey>
YSKUNWVWMAIANA-OWOJBTEDSA-N

>  <SMILES>
c1cc(c(cc1O)Cl)/C=C/c2cc(cc(c2)O)O

$$$$
