2J79_GTL_A_1446
  RCSB PDB08012017163D
Coordinates from PDB:2J79:A:1446 Model:1 without hydrogens
 13 13  0  0  0  0            999 V2000
   -1.0040   10.7130   10.5590   C 0  0  0  0  0  0  0  0  0  0  0  0
   -0.6590   10.3720   11.8000   N 0  0  0  0  0  0  0  0  0  0  0  0
    0.0820   11.4610    9.7580   C 0  0  0  0  0  0  0  0  0  0  0  0
   -2.3020   10.3820   10.0750   N 0  0  0  0  0  0  0  0  0  0  0  0
   -1.4930    9.5120   12.5330   O 0  0  0  0  0  0  0  0  0  0  0  0
    0.4940   12.6670   10.3580   O 0  0  0  0  0  0  0  0  0  0  0  0
   -0.4750   11.8970    8.4000   C 0  0  0  0  0  0  0  0  0  0  0  0
    0.6520   12.1630    7.5930   O 0  0  0  0  0  0  0  0  0  0  0  0
   -1.4350   10.8530    7.7670   C 0  0  0  0  0  0  0  0  0  0  0  0
   -0.6840    9.6660    7.6480   O 0  0  0  0  0  0  0  0  0  0  0  0
   -2.6640   10.6690    8.6850   C 0  0  0  0  0  0  0  0  0  0  0  0
   -3.6670    9.5670    8.2980   C 0  0  0  0  0  0  0  0  0  0  0  0
   -3.2150    8.2790    8.6280   O 0  0  0  0  0  0  0  0  0  0  0  0
  1  2  2  0  0  0  0
  1  3  1  0  0  0  0
  1  4  1  0  0  0  0
  2  5  1  0  0  0  0
  3  6  1  0  0  0  0
  3  7  1  0  0  0  0
  4 11  1  0  0  0  0
  7  8  1  0  0  0  0
  7  9  1  0  0  0  0
  9 10  1  0  0  0  0
  9 11  1  0  0  0  0
 11 12  1  0  0  0  0
 12 13  1  0  0  0  0
M  END
>  <InstanceId>
2J79_GTL_A_1446

>  <ChemCompId>
GTL

>  <PdbId>
2J79

>  <ChainId>
A

>  <ResidueNumber>
1446

>  <InsertionCode>


>  <Model>
1

>  <AltIds>


>  <MissingHeavyAtoms>
0

>  <ObservedFormula>
C6 N2 O5

>  <Name>
(2E,3R,4R,5R,6S)-3,4,5-TRIHYDROXY-6-(HYDROXYMETHYL)-2-PIPERIDINONE

>  <SystematicName>
(3S,4S,5S,6R)-2-hydroxyimino-6-(hydroxymethyl)piperidine-3,4,5-triol

>  <Synonyms>
D-GALACTOHYDROXIMO-1,5-LACTAM

>  <Type>
NON-POLYMER

>  <Formula>
C6 H12 N2 O5

>  <MolecularWeight>
192.17

>  <ModifiedDate>
2011-06-04

>  <Parent>


>  <OneLetterCode>


>  <SubcomponentList>


>  <AmbiguousFlag>
N

>  <InChI>
InChI=1S/C6H12N2O5/c9-1-2-3(10)4(11)5(12)6(7-2)8-13/h2-5,9-13H,1H2,(H,7,8)/t2-,3+,4+,5-/m1/s1

>  <InChIKey>
VBXHGXTYZGYTQG-MGCNEYSASA-N

>  <SMILES>
C([C@@H]1[C@@H]([C@@H]([C@H](C(=NO)N1)O)O)O)O

$$$$
