2WNJ_ZY7_A_301
  RCSB PDB08012018093D
Coordinates from PDB:2WNJ:A:301 Model:1 without hydrogens
 23 25  0  0  0  0            999 V2000
   30.3020   -6.7100   62.7110   C 0  0  0  0  0  0  0  0  0  0  0  0
   31.0570   -7.2610   63.8820   C 0  0  0  0  0  0  0  0  0  0  0  0
   30.6470   -8.5950   64.3840   C 0  0  0  0  0  0  0  0  0  0  0  0
   29.6210   -9.2440   63.7410   O 0  0  0  0  0  0  0  0  0  0  0  0
   29.1900  -10.5610   64.1110   C 0  0  0  0  0  0  0  0  0  0  0  0
   31.3190   -9.1360   65.4880   C 0  0  0  0  0  0  0  0  0  0  0  0
   32.1050   -6.6110   64.5400   C 0  0  0  0  0  0  0  0  0  0  0  0
   32.7410   -7.1750   65.6360   C 0  0  0  0  0  0  0  0  0  0  0  0
   32.3540   -8.4320   66.1050   C 0  0  0  0  0  0  0  0  0  0  0  0
   32.9820   -8.9720   67.1950   O 0  0  0  0  0  0  0  0  0  0  0  0
   30.2700   -5.4240   62.2900   C 0  0  0  0  0  0  0  0  0  0  0  0
   31.0430   -4.2860   62.8960   C 0  0  0  0  0  0  0  0  0  0  0  0
   30.0170   -3.1790   63.1270   C 0  0  0  0  0  0  0  0  0  0  0  0
   29.5340   -2.6710   61.7770   C 0  0  0  0  0  0  0  0  0  0  0  0
   29.0690   -3.8500   61.0520   N 0  0  0  0  0  0  0  0  0  0  0  0
   29.4280   -5.0570   61.1470   C 0  0  0  0  0  0  0  0  0  0  0  0
   28.9980   -5.9840   60.0430   C 0  0  0  0  0  0  0  0  0  0  0  0
   27.6530   -6.1190   59.7620   C 0  0  0  0  0  0  0  0  0  0  0  0
   27.1810   -6.8870   58.7760   N 0  0  0  0  0  0  0  0  0  0  0  0
   28.0280   -7.5600   57.9960   C 0  0  0  0  0  0  0  0  0  0  0  0
   29.4040   -7.4490   58.2090   C 0  0  0  0  0  0  0  0  0  0  0  0
   29.8940   -6.6550   59.2400   C 0  0  0  0  0  0  0  0  0  0  0  0
   33.5530   -8.1350   68.2020   C 0  0  0  0  0  0  0  0  0  0  0  0
  1  2  1  0  0  0  0
  1 11  2  0  0  0  0
  2  3  1  0  0  0  0
  2  7  2  0  0  0  0
  3  4  1  0  0  0  0
  3  6  2  0  0  0  0
  4  5  1  0  0  0  0
  6  9  1  0  0  0  0
  7  8  1  0  0  0  0
  8  9  2  0  0  0  0
  9 10  1  0  0  0  0
 10 23  1  0  0  0  0
 11 12  1  0  0  0  0
 11 16  1  0  0  0  0
 12 13  1  0  0  0  0
 13 14  1  0  0  0  0
 14 15  1  0  0  0  0
 15 16  2  0  0  0  0
 16 17  1  0  0  0  0
 17 18  2  0  0  0  0
 17 22  1  0  0  0  0
 18 19  1  0  0  0  0
 19 20  2  0  0  0  0
 20 21  1  0  0  0  0
 21 22  2  0  0  0  0
M  END
>  <InstanceId>
2WNJ_ZY7_A_301

>  <ChemCompId>
ZY7

>  <PdbId>
2WNJ

>  <ChainId>
A

>  <ResidueNumber>
301

>  <InsertionCode>


>  <Model>
1

>  <AltIds>


>  <MissingHeavyAtoms>
0

>  <ObservedFormula>
C19 N2 O2

>  <Name>
(3E)-3-[(2,4-DIMETHOXYPHENYL)METHYLIDENE]-3,4,5,6-TETRAHYDRO-2,3'-BIPYRIDINE

>  <SystematicName>
3-[(3E)-3-[(2,4-dimethoxyphenyl)methylidene]-5,6-dihydro-4H-pyridin-2-yl]pyridine

>  <Synonyms>


>  <Type>
non-polymer

>  <Formula>
C19 H20 N2 O2

>  <MolecularWeight>
308.374

>  <ModifiedDate>
2011-06-04

>  <Parent>


>  <OneLetterCode>


>  <SubcomponentList>


>  <AmbiguousFlag>
N

>  <InChI>
InChI=1S/C19H20N2O2/c1-22-17-8-7-14(18(12-17)23-2)11-15-5-4-10-21-19(15)16-6-3-9-20-13-16/h3,6-9,11-13H,4-5,10H2,1-2H3/b15-11+

>  <InChIKey>
RPYWXZCFYPVCNQ-RVDMUPIBSA-N

>  <SMILES>
COc1ccc(c(c1)OC)\C=C\2/CCCN=C2c3cccnc3

$$$$
