2BYS_LOB_A_301
  RCSB PDB08012016443D
Coordinates from PDB:2BYS:A:301 Model:1 without hydrogens
 25 27  0  0  0  0            999 V2000
   -5.8150   22.5840    6.1490   O 0  0  0  0  0  0  0  0  0  0  0  0
   -5.8710   23.8000    6.0880   C 0  0  0  0  0  0  0  0  0  0  0  0
   -5.2930   24.6120    7.2290   C 0  0  0  0  0  0  0  0  0  0  0  0
   -4.7700   23.9560    8.3510   C 0  0  0  0  0  0  0  0  0  0  0  0
   -4.2310   24.6830    9.4140   C 0  0  0  0  0  0  0  0  0  0  0  0
   -4.2090   26.0760    9.3730   C 0  0  0  0  0  0  0  0  0  0  0  0
   -4.7210   26.7400    8.2640   C 0  0  0  0  0  0  0  0  0  0  0  0
   -5.2540   26.0090    7.2010   C 0  0  0  0  0  0  0  0  0  0  0  0
   -6.4790   24.4100    4.8370   C 0  0  0  0  0  0  0  0  0  0  0  0
   -7.9930   24.2070    4.6420   C 0  0  0  0  0  0  0  0  0  0  0  0
   -8.4510   22.7860    4.9150   C 0  0  0  0  0  0  0  0  0  0  0  0
   -9.9070   22.6750    4.5290   C 0  0  0  0  0  0  0  0  0  0  0  0
  -10.0290   22.7100    3.0170   C 0  0  0  0  0  0  0  0  0  0  0  0
   -9.2690   23.8540    2.3380   C 0  0  0  0  0  0  0  0  0  0  0  0
   -8.3160   24.5730    3.2340   N 0  0  0  0  0  0  0  0  0  0  0  0
   -8.3140   26.0140    3.0040   C 0  0  0  0  0  0  0  0  0  0  0  0
   -8.4900   23.3200    1.1190   C 0  0  0  0  0  0  0  0  0  0  0  0
   -8.0770   24.4360    0.1550   C 0  0  0  0  0  0  0  0  0  0  0  0
   -6.7000   24.7440    0.3740   O 0  0  0  0  0  0  0  0  0  0  0  0
   -8.2640   24.1150   -1.2910   C 0  0  0  0  0  0  0  0  0  0  0  0
   -7.8610   22.8970   -1.8380   C 0  0  0  0  0  0  0  0  0  0  0  0
   -8.0450   22.6310   -3.1970   C 0  0  0  0  0  0  0  0  0  0  0  0
   -8.6260   23.5850   -4.0310   C 0  0  0  0  0  0  0  0  0  0  0  0
   -9.0150   24.8120   -3.4920   C 0  0  0  0  0  0  0  0  0  0  0  0
   -8.8300   25.0750   -2.1340   C 0  0  0  0  0  0  0  0  0  0  0  0
  1  2  2  0  0  0  0
  2  3  1  0  0  0  0
  2  9  1  0  0  0  0
  3  4  2  0  0  0  0
  3  8  1  0  0  0  0
  4  5  1  0  0  0  0
  5  6  2  0  0  0  0
  6  7  1  0  0  0  0
  7  8  2  0  0  0  0
  9 10  1  0  0  0  0
 10 11  1  0  0  0  0
 10 15  1  0  0  0  0
 11 12  1  0  0  0  0
 12 13  1  0  0  0  0
 13 14  1  0  0  0  0
 14 15  1  0  0  0  0
 14 17  1  0  0  0  0
 15 16  1  0  0  0  0
 17 18  1  0  0  0  0
 18 19  1  0  0  0  0
 18 20  1  0  0  0  0
 20 21  2  0  0  0  0
 20 25  1  0  0  0  0
 21 22  1  0  0  0  0
 22 23  2  0  0  0  0
 23 24  1  0  0  0  0
 24 25  2  0  0  0  0
M  END
>  <InstanceId>
2BYS_LOB_A_301

>  <ChemCompId>
LOB

>  <PdbId>
2BYS

>  <ChainId>
A

>  <ResidueNumber>
301

>  <InsertionCode>


>  <Model>
1

>  <AltIds>


>  <MissingHeavyAtoms>
0

>  <ObservedFormula>
C22 N O2

>  <Name>
LOBELINE

>  <SystematicName>
2-[(1R,2S,6R)-6-[(2R)-2-hydroxy-2-phenyl-ethyl]-1-methyl-piperidin-2-yl]-1-phenyl-ethanone

>  <Synonyms>
2-{(2S,6R)-6-[(2R)-2-HYDROXY-2-PHENYLETHYL]-1-METHYLPIPERIDIN-2-YL}-1-PHENYLETHANONE

>  <Type>
NON-POLYMER

>  <Formula>
C22 H27 N O2

>  <MolecularWeight>
337.455

>  <ModifiedDate>
2020-06-17

>  <Parent>


>  <OneLetterCode>


>  <SubcomponentList>


>  <AmbiguousFlag>
N

>  <InChI>
InChI=1S/C22H27NO2/c1-23-19(15-21(24)17-9-4-2-5-10-17)13-8-14-20(23)16-22(25)18-11-6-3-7-12-18/h2-7,9-12,19-21,24H,8,13-16H2,1H3/t19-,20+,21-/m1/s1

>  <InChIKey>
MXYUKLILVYORSK-QHAWAJNXSA-N

>  <SMILES>
C[N@@]1[C@H](CCC[C@H]1CC(=O)c2ccccc2)C[C@H](c3ccccc3)O

$$$$
