6DH2_A60_A_102
  RCSB PDB08022004223D
Coordinates from PDB:6DH2:A:102 Model:1 without hydrogens
 40 43  0  0  0  0            999 V2000
  116.8020   51.5870   12.6060   N 0  0  0  0  0  0  0  0  0  0  0  0
  117.7380   52.2240   13.4910   C 0  0  0  0  0  0  0  0  0  0  0  0
  118.9110   51.4200   14.1030   C 0  0  0  0  0  0  0  0  0  0  0  0
  119.8930   52.1110   15.0370   C 0  0  0  0  0  0  0  0  0  0  0  0
  119.6800   53.6010   15.3550   C 0  0  0  0  0  0  0  0  0  0  0  0
  118.5370   54.4000   14.7470   C 0  0  0  0  0  0  0  0  0  0  0  0
  117.5560   53.6950   13.8130   C 0  0  0  0  0  0  0  0  0  0  0  0
  120.8280   54.4990   16.4410   S 0  0  0  0  0  0  0  0  0  0  0  0
  120.1680   55.5860   17.1360   O 0  0  0  0  0  0  0  0  0  0  0  0
  121.3730   53.6730   17.4940   O 0  0  0  0  0  0  0  0  0  0  0  0
  122.0540   55.0650   15.3970   N 0  0  0  0  0  0  0  0  0  0  0  0
  122.7490   54.0140   14.6510   C 0  0  0  0  0  0  0  0  0  0  0  0
  124.3180   54.2880   14.6240   C 0  0  0  0  0  0  0  0  0  0  0  0
  124.9870   53.2650   13.6470   C 0  0  0  0  0  0  0  0  0  0  0  0
  124.8650   54.2310   16.0690   C 0  0  0  0  0  0  0  0  0  0  0  0
  121.7670   56.3590   14.6940   C 0  0  0  0  0  0  0  0  0  0  0  0
  122.7550   57.4500   15.2140   C 0  0  0  0  0  0  0  0  0  0  0  0
  126.3850   54.5720   16.0930   C 0  0  0  0  0  0  0  0  0  0  0  0
  122.6810   58.5800   14.4170   O 0  0  0  0  0  0  0  0  0  0  0  0
  122.4090   57.8080   16.6520   C 0  0  0  0  0  0  0  0  0  0  0  0
  124.9140   51.8030   14.1550   C 0  0  0  0  0  0  0  0  0  0  0  0
  123.4470   58.7480   17.0860   N 0  0  0  0  0  0  0  0  0  0  0  0
  124.4580   58.3740   18.0990   C 0  0  0  0  0  0  0  0  0  0  0  0
  124.4620   57.3040   18.6200   O 0  0  0  0  0  0  0  0  0  0  0  0
  125.4080   59.4010   18.3710   O 0  0  0  0  0  0  0  0  0  0  0  0
  126.2930   59.2870   19.5790   C 0  0  0  0  0  0  0  0  0  0  0  0
  127.4460   59.6960   19.2320   C 0  0  0  0  0  0  0  0  0  0  0  0
  127.2530   61.3250   19.1450   O 0  0  0  0  0  0  0  0  0  0  0  0
  126.4410   61.6460   20.1110   C 0  0  0  0  0  0  0  0  0  0  0  0
  125.2230   62.4980   19.5970   O 0  0  0  0  0  0  0  0  0  0  0  0
  124.1680   61.7100   19.5900   C 0  0  0  0  0  0  0  0  0  0  0  0
  124.4880   60.5160   20.6410   C 0  0  0  0  0  0  0  0  0  0  0  0
  125.8290   60.3340   20.6340   C 0  0  0  0  0  0  0  0  0  0  0  0
  121.0790   58.5160   16.7620   C 0  0  0  0  0  0  0  0  0  0  0  0
  120.5680   57.9260   19.3180   C 0  0  0  0  0  0  0  0  0  0  0  0
  120.3800   58.3680   20.7840   C 0  0  0  0  0  0  0  0  0  0  0  0
  120.5050   59.8640   21.1650   C 0  0  0  0  0  0  0  0  0  0  0  0
  120.8130   60.9050   20.0810   C 0  0  0  0  0  0  0  0  0  0  0  0
  121.0040   60.4620   18.6170   C 0  0  0  0  0  0  0  0  0  0  0  0
  120.8830   58.9700   18.2360   C 0  0  0  0  0  0  0  0  0  0  0  0
  1  2  1  0  0  0  0
  2  3  2  0  0  0  0
  2  7  1  0  0  0  0
  3  4  1  0  0  0  0
  4  5  2  0  0  0  0
  5  6  1  0  0  0  0
  5  8  1  0  0  0  0
  6  7  2  0  0  0  0
  8  9  2  0  0  0  0
  8 10  2  0  0  0  0
  8 11  1  0  0  0  0
 11 12  1  0  0  0  0
 11 16  1  0  0  0  0
 12 13  1  0  0  0  0
 13 14  1  0  0  0  0
 13 15  1  0  0  0  0
 14 21  1  0  0  0  0
 15 18  1  0  0  0  0
 16 17  1  0  0  0  0
 17 19  1  0  0  0  0
 17 20  1  0  0  0  0
 20 22  1  0  0  0  0
 20 34  1  0  0  0  0
 22 23  1  0  0  0  0
 23 24  2  0  0  0  0
 23 25  1  0  0  0  0
 25 26  1  0  0  0  0
 26 27  1  0  0  0  0
 26 33  1  0  0  0  0
 27 28  1  0  0  0  0
 28 29  1  0  0  0  0
 29 30  1  0  0  0  0
 29 33  1  0  0  0  0
 30 31  1  0  0  0  0
 31 32  1  0  0  0  0
 32 33  1  0  0  0  0
 34 40  1  0  0  0  0
 35 36  2  0  0  0  0
 35 40  1  0  0  0  0
 36 37  1  0  0  0  0
 37 38  2  0  0  0  0
 38 39  1  0  0  0  0
 39 40  2  0  0  0  0
M  END
>  <InstanceId>
6DH2_A60_A_102

>  <ChemCompId>
A60

>  <PdbId>
6DH2

>  <ChainId>
A

>  <ResidueNumber>
102

>  <InsertionCode>


>  <Model>
1

>  <AltIds>


>  <MissingHeavyAtoms>
0

>  <ObservedFormula>
C29 N3 O7 S

>  <Name>
(3R,3aS,6aR)-hexahydrofuro[2,3-b]furan-3-yl [(1S,2R)-3-{[(4-aminophenyl)sulfonyl](2-ethylbutyl)amino}-1-benzyl-2-hydroxypropyl]carbamate

>  <SystematicName>
[(3R,3aS,6aR)-2,3,3a,4,5,6a-hexahydrofuro[2,3-b]furan-3-yl] N-[(2S,3R)-4-[(4-aminophenyl)sulfonyl-(2-ethylbutyl)amino]-3-hydroxy-1-phenyl-butan-2-yl]carbamate

>  <Synonyms>


>  <Type>
NON-POLYMER

>  <Formula>
C29 H41 N3 O7 S

>  <MolecularWeight>
575.717

>  <ModifiedDate>
2011-08-05

>  <Parent>


>  <OneLetterCode>


>  <SubcomponentList>


>  <AmbiguousFlag>
N

>  <InChI>
InChI=1S/C29H41N3O7S/c1-3-20(4-2)17-32(40(35,36)23-12-10-22(30)11-13-23)18-26(33)25(16-21-8-6-5-7-9-21)31-29(34)39-27-19-38-28-24(27)14-15-37-28/h5-13,20,24-28,33H,3-4,14-19,30H2,1-2H3,(H,31,34)/t24-,25-,26+,27-,28+/m0/s1

>  <InChIKey>
GEBDYIIQOXRGOM-AJIIGFCHSA-N

>  <SMILES>
CCC(CC)C[N@@](C[C@H]([C@H](Cc1ccccc1)NC(=O)O[C@H]2CO[C@@H]3[C@H]2CCO3)O)S(=O)(=O)c4ccc(cc4)N

$$$$
