3QT6_2P0_A_328
  RCSB PDB08012020173D
Coordinates from PDB:3QT6:A:328 Model:1 without hydrogens
 20 20  0  0  0  0            999 V2000
  -25.2360  -23.2340  -18.4070   C 0  0  0  0  0  0  0  0  0  0  0  0
  -27.0380  -22.4710  -19.7900   N 0  0  0  0  0  0  0  0  0  0  0  0
  -24.5740  -23.1160  -17.3430   O 0  0  0  0  0  0  0  0  0  0  0  0
  -26.6360  -22.7670  -18.4540   C 0  0  0  0  0  0  0  0  0  0  0  0
  -27.5340  -23.8540  -17.9730   C 0  0  0  0  0  0  0  0  0  0  0  0
  -27.8900  -23.4920  -20.2990   C 0  0  0  0  0  0  0  0  0  0  0  0
  -28.4920  -24.1450  -19.0980   C 0  0  0  0  0  0  0  0  0  0  0  0
  -27.0920  -21.2310  -21.6910   O 0  0  0  0  0  0  0  0  0  0  0  0
  -25.4300  -14.6190  -19.8330   O 0  0  0  0  0  0  0  0  0  0  0  0
  -23.4860  -18.0640  -22.0650   O 0  0  0  0  0  0  0  0  0  0  0  0
  -23.8420  -15.7710  -18.3320   O 0  0  0  0  0  0  0  0  0  0  0  0
  -23.1720  -15.3450  -20.5960   O 0  0  0  0  0  0  0  0  0  0  0  0
  -23.2270  -18.8310  -19.6940   O 0  0  0  0  0  0  0  0  0  0  0  0
  -25.7610  -20.2670  -20.0230   C 0  0  0  0  0  0  0  0  0  0  0  0
  -25.2630  -19.4300  -21.0070   O 0  0  0  0  0  0  0  0  0  0  0  0
  -24.9670  -17.0590  -20.2170   O 0  0  0  0  0  0  0  0  0  0  0  0
  -26.6590  -21.3330  -20.5550   C 0  0  0  0  0  0  0  0  0  0  0  0
  -24.3680  -15.6790  -19.7420   P 0  0  0  0  0  0  0  0  0  0  0  0
  -24.1880  -18.3240  -20.7570   P 0  0  0  0  0  0  0  0  0  0  0  0
  -24.6740  -23.7410  -19.4210   O 0  0  0  0  0  0  0  0  0  0  0  0
 20  1  2  0  0  0  0
  4  1  1  0  0  0  0
  1  3  1  0  0  0  0
 17  2  1  0  0  0  0
  6  2  1  0  0  0  0
  2  4  1  0  0  0  0
  4  5  1  0  0  0  0
  7  5  1  0  0  0  0
  6  7  1  0  0  0  0
  8 17  2  0  0  0  0
  9 18  1  0  0  0  0
 10 19  2  0  0  0  0
 18 11  1  0  0  0  0
 12 18  2  0  0  0  0
 19 13  1  0  0  0  0
 15 14  1  0  0  0  0
 17 14  1  0  0  0  0
 15 19  1  0  0  0  0
 19 16  1  0  0  0  0
 16 18  1  0  0  0  0
M  END
>  <InstanceId>
3QT6_2P0_A_328

>  <ChemCompId>
2P0

>  <PdbId>
3QT6

>  <ChainId>
A

>  <ResidueNumber>
328

>  <InsertionCode>


>  <Model>
1

>  <AltIds>


>  <MissingHeavyAtoms>
0

>  <ObservedFormula>
C7 N O10 P2

>  <Name>
1-({[(S)-hydroxy(phosphonooxy)phosphoryl]oxy}acetyl)-L-proline

>  <SystematicName>
(2S)-1-[2-[hydroxy(phosphonooxy)phosphoryl]oxyethanoyl]pyrrolidine-2-carboxylic acid

>  <Synonyms>
diphosphoglycolylproline

>  <Type>
L-peptide linking

>  <Formula>
C7 H13 N O10 P2

>  <MolecularWeight>
333.126

>  <ModifiedDate>
2011-06-04

>  <Parent>
PRO

>  <OneLetterCode>


>  <SubcomponentList>


>  <AmbiguousFlag>
N

>  <InChI>
InChI=1S/C7H13NO10P2/c9-6(8-3-1-2-5(8)7(10)11)4-17-20(15,16)18-19(12,13)14/h5H,1-4H2,(H,10,11)(H,15,16)(H2,12,13,14)/t5-/m0/s1

>  <InChIKey>
JFTJDUMMWOSHFL-YFKPBYRVSA-N

>  <SMILES>
C1C[C@H](N(C1)C(=O)CO[P@](=O)(O)OP(=O)(O)O)C(=O)O

$$$$
