3SUF_SUE_A_1201
  RCSB PDB08012020303D
Coordinates from PDB:3SUF:A:1201 Model:1 without hydrogens
 54 60  0  0  0  0            999 V2000
   11.9670    9.2330   16.2490   C 0  0  0  0  0  0  0  0  0  0  0  0
   13.1790   11.1600   16.6610   N 0  0  0  0  0  0  0  0  0  0  0  0
   12.3930    9.0700   15.1330   O 0  0  0  0  0  0  0  0  0  0  0  0
   11.8800   10.4800   16.7840   C 0  0  0  0  0  0  0  0  0  0  0  0
   10.8070   11.3290   16.1040   C 0  0  0  0  0  0  0  0  0  0  0  0
   14.0500   11.3540   17.6550   C 0  0  0  0  0  0  0  0  0  0  0  0
   11.9050    4.9880   20.5400   N 0  0  0  0  0  0  0  0  0  0  0  0
   13.9780    2.4260   21.8770   C 0  0  0  0  0  0  0  0  0  0  0  0
   11.3410    3.2140   21.8120   C 0  0  0  0  0  0  0  0  0  0  0  0
   17.5070   12.2810   17.9860   C 0  0  0  0  0  0  0  0  0  0  0  0
   17.0570   10.9210   18.3390   C 0  0  0  0  0  0  0  0  0  0  0  0
   16.1280   12.0790   18.4040   C 0  0  0  0  0  0  0  0  0  0  0  0
    6.2580    1.8730   13.6300   C 0  0  0  0  0  0  0  0  0  0  0  0
    7.5360    1.6750   14.3040   C 0  0  0  0  0  0  0  0  0  0  0  0
    8.1450    3.0380   11.6750   O 0  0  0  0  0  0  0  0  0  0  0  0
    7.8500    3.9580   12.7230   S 0  0  0  0  0  0  0  0  0  0  0  0
   11.1930    6.0590   12.9250   C 0  0  0  0  0  0  0  0  0  0  0  0
    9.9970    7.3770   14.9610   O 0  0  0  0  0  0  0  0  0  0  0  0
   10.9810    6.7660   15.2020   C 0  0  0  0  0  0  0  0  0  0  0  0
   10.5390   12.5230   16.9120   C 0  0  0  0  0  0  0  0  0  0  0  0
   10.6070    7.9580   11.3420   C 0  0  0  0  0  0  0  0  0  0  0  0
   13.6170    3.5450   21.1830   C 0  0  0  0  0  0  0  0  0  0  0  0
   17.4860   10.3440   19.6660   C 0  0  0  0  0  0  0  0  0  0  0  0
    9.1050    4.6760   13.2140   N 0  0  0  0  0  0  0  0  0  0  0  0
   11.5890    7.3410   12.2930   C 0  0  0  0  0  0  0  0  0  0  0  0
   15.8020    8.4220   19.7290   C 0  0  0  0  0  0  0  0  0  0  0  0
   13.0020    1.7160   22.5270   C 0  0  0  0  0  0  0  0  0  0  0  0
   12.4530    6.7610   19.2260   O 0  0  0  0  0  0  0  0  0  0  0  0
    9.5160    1.2150   22.7010   C 0  0  0  0  0  0  0  0  0  0  0  0
   10.7970    1.3520   23.1630   O 0  0  0  0  0  0  0  0  0  0  0  0
   17.2940    8.8380   19.6960   C 0  0  0  0  0  0  0  0  0  0  0  0
   15.6030    7.0420   20.2600   C 0  0  0  0  0  0  0  0  0  0  0  0
   12.8010    5.6890   19.9010   C 0  0  0  0  0  0  0  0  0  0  0  0
   14.1310    5.3250   19.9010   C 0  0  0  0  0  0  0  0  0  0  0  0
   12.2880    3.9210   21.1630   C 0  0  0  0  0  0  0  0  0  0  0  0
   14.5180    4.2550   20.5600   N 0  0  0  0  0  0  0  0  0  0  0  0
   15.0610    6.0670   19.2660   C 0  0  0  0  0  0  0  0  0  0  0  0
   11.6810    2.0800   22.4910   C 0  0  0  0  0  0  0  0  0  0  0  0
    6.9040    4.9170   12.2060   O 0  0  0  0  0  0  0  0  0  0  0  0
    6.9880    3.0060   14.1420   C 0  0  0  0  0  0  0  0  0  0  0  0
    9.6900    5.4220   11.2440   O 0  0  0  0  0  0  0  0  0  0  0  0
   12.2550    6.1090   11.8790   C 0  0  0  0  0  0  0  0  0  0  0  0
    9.8980    5.3610   12.4160   C 0  0  0  0  0  0  0  0  0  0  0  0
   11.6070    6.0840   14.3040   N 0  0  0  0  0  0  0  0  0  0  0  0
   11.2260    8.7650   10.2590   C 0  0  0  0  0  0  0  0  0  0  0  0
   13.7370   10.8730   18.7060   O 0  0  0  0  0  0  0  0  0  0  0  0
   15.1830   12.0460   17.4110   O 0  0  0  0  0  0  0  0  0  0  0  0
   10.7850    6.0760   17.5030   C 0  0  0  0  0  0  0  0  0  0  0  0
   11.5330    6.8220   16.4520   C 0  0  0  0  0  0  0  0  0  0  0  0
   11.5010    8.2140   16.9350   N 0  0  0  0  0  0  0  0  0  0  0  0
   10.9200    8.2400   18.2640   C 0  0  0  0  0  0  0  0  0  0  0  0
   11.0830    6.8910   18.7650   C 0  0  0  0  0  0  0  0  0  0  0  0
    9.5070   10.6400   15.9970   C 0  0  0  0  0  0  0  0  0  0  0  0
   11.2740   11.7900   14.7460   C 0  0  0  0  0  0  0  0  0  0  0  0
 50  1  1  0  0  0  0
  4  1  1  0  0  0  0
  1  3  2  0  0  0  0
  6  2  1  0  0  0  0
  4  2  1  0  0  0  0
  4  5  1  0  0  0  0
 20  5  1  0  0  0  0
 53  5  1  0  0  0  0
  5 54  1  0  0  0  0
 46  6  2  0  0  0  0
  6 47  1  0  0  0  0
 35  7  2  0  0  0  0
  7 33  1  0  0  0  0
 27  8  2  0  0  0  0
  8 22  1  0  0  0  0
 38  9  2  0  0  0  0
  9 35  1  0  0  0  0
 11 10  1  0  0  0  0
 12 10  1  0  0  0  0
 23 11  1  0  0  0  0
 11 12  1  0  0  0  0
 12 47  1  0  0  0  0
 14 13  1  0  0  0  0
 40 13  1  0  0  0  0
 14 40  1  0  0  0  0
 16 15  2  0  0  0  0
 40 16  1  0  0  0  0
 24 16  1  0  0  0  0
 16 39  2  0  0  0  0
 44 17  1  0  0  0  0
 17 43  1  0  0  0  0
 17 42  1  0  0  0  0
 17 25  1  0  0  0  0
 19 18  2  0  0  0  0
 49 19  1  0  0  0  0
 19 44  1  0  0  0  0
 25 21  1  0  0  0  0
 21 45  2  0  0  0  0
 22 35  1  0  0  0  0
 22 36  2  0  0  0  0
 31 23  1  0  0  0  0
 24 43  1  0  0  0  0
 42 25  1  0  0  0  0
 32 26  1  0  0  0  0
 26 31  1  0  0  0  0
 27 38  1  0  0  0  0
 33 28  1  0  0  0  0
 28 52  1  0  0  0  0
 30 29  1  0  0  0  0
 30 38  1  0  0  0  0
 32 37  1  0  0  0  0
 34 33  2  0  0  0  0
 36 34  1  0  0  0  0
 34 37  1  0  0  0  0
 43 41  2  0  0  0  0
 52 48  1  0  0  0  0
 48 49  1  0  0  0  0
 49 50  1  0  0  0  0
 51 50  1  0  0  0  0
 52 51  1  0  0  0  0
M  END
>  <InstanceId>
3SUF_SUE_A_1201

>  <ChemCompId>
SUE

>  <PdbId>
3SUF

>  <ChainId>
A

>  <ResidueNumber>
1201

>  <InsertionCode>


>  <Model>
1

>  <AltIds>


>  <MissingHeavyAtoms>
0

>  <ObservedFormula>
C38 N6 O9 S

>  <Name>
(1aR,5S,8S,10R,22aR)-5-tert-butyl-N-{(1R,2S)-1-[(cyclopropylsulfonyl)carbamoyl]-2-ethenylcyclopropyl}-14-methoxy-3,6-di oxo-1,1a,3,4,5,6,9,10,18,19,20,21,22,22a-tetradecahydro-8H-7,10-methanocyclopropa[18,19][1,10,3,6]dioxadiazacyclononadec ino[11,12-b]quinoxaline-8-carboxamide

>  <SystematicName>


>  <Synonyms>
Grazoprevir, MK-5172

>  <Type>
NON-POLYMER

>  <Formula>
C38 H50 N6 O9 S

>  <MolecularWeight>
766.903

>  <ModifiedDate>
2020-06-17

>  <Parent>


>  <OneLetterCode>


>  <SubcomponentList>


>  <AmbiguousFlag>
N

>  <InChI>
InChI=1S/C38H50N6O9S/c1-6-22-19-38(22,35(47)43-54(49,50)25-13-14-25)42-32(45)29-18-24-20-44(29)34(46)31(37(2,3)4)41-36(48)53-30-16-21(30)10-8-7-9-11-27-33(52-24)40-28-17-23(51-5)12-15-26(28)39-27/h6,12,15,17,21-22,24-25,29-31H,1,7-11,13-14,16,18-20H2,2-5H3,(H,41,48)(H,42,45)(H,43,47)/t21-,22-,24-,29+,30-,31-,38-/m1/s1

>  <InChIKey>
OBMNJSNZOWALQB-NCQNOWPTSA-N

>  <SMILES>
CC(C)(C)[C@H]1C(=O)N2C[C@@H](C[C@H]2C(=O)N[C@@]3(C[C@H]3C=C)C(=O)NS(=O)(=O)C4CC4)Oc5c(nc6ccc(cc6n5)OC)CCCCC[C@@H]7C[C@H]7OC(=O)N1

$$$$
