5UPZ_8HD_A_201
  RCSB PDB08022003143D
Coordinates from PDB:5UPZ:A:201 Model:1 without hydrogens
 47 50  0  0  0  0            999 V2000
   21.0010   27.4820   14.4810   C 0  0  0  0  0  0  0  0  0  0  0  0
   21.7910   28.6990   13.9340   C 0  0  0  0  0  0  0  0  0  0  0  0
   21.8410   29.6290   15.0540   O 0  0  0  0  0  0  0  0  0  0  0  0
   21.6320   26.3950   15.0800   C 0  0  0  0  0  0  0  0  0  0  0  0
   20.8360   25.3450   15.5600   C 0  0  0  0  0  0  0  0  0  0  0  0
   19.4460   25.3940   15.4220   C 0  0  0  0  0  0  0  0  0  0  0  0
   18.8410   26.4560   14.8010   C 0  0  0  0  0  0  0  0  0  0  0  0
   19.6260   27.4950   14.3560   C 0  0  0  0  0  0  0  0  0  0  0  0
   18.4840   24.0290   15.9800   S 0  0  0  0  0  0  0  0  0  0  0  0
   17.3550   23.8600   15.0490   O 0  0  0  0  0  0  0  0  0  0  0  0
   19.4240   22.9220   16.2070   O 0  0  0  0  0  0  0  0  0  0  0  0
   17.8130   24.4420   17.4210   N 0  0  0  0  0  0  0  0  0  0  0  0
   18.7940   24.7620   18.4550   C 0  0  0  0  0  0  0  0  0  0  0  0
   18.4740   24.0970   19.8320   C 0  0  0  0  0  0  0  0  0  0  0  0
   18.5640   22.5740   19.7810   C 0  0  0  0  0  0  0  0  0  0  0  0
   19.5040   24.6810   20.8270   C 0  0  0  0  0  0  0  0  0  0  0  0
   16.5110   25.0770   17.3800   C 0  0  0  0  0  0  0  0  0  0  0  0
   15.4400   24.1240   17.9870   C 0  0  0  0  0  0  0  0  0  0  0  0
   14.2510   24.9140   18.2770   O 0  0  0  0  0  0  0  0  0  0  0  0
   15.1030   23.0030   16.9830   C 0  0  0  0  0  0  0  0  0  0  0  0
   14.2480   22.0040   17.6700   N 0  0  0  0  0  0  0  0  0  0  0  0
   14.7850   20.8570   18.1560   C 0  0  0  0  0  0  0  0  0  0  0  0
   15.9150   20.5570   18.2270   O 0  0  0  0  0  0  0  0  0  0  0  0
   14.3070   23.4820   15.7550   C 0  0  0  0  0  0  0  0  0  0  0  0
   12.6750   21.8760   14.7910   C 0  0  0  0  0  0  0  0  0  0  0  0
   12.3780   20.6720   14.0840   C 0  0  0  0  0  0  0  0  0  0  0  0
   13.3620   19.9450   13.4160   C 0  0  0  0  0  0  0  0  0  0  0  0
   14.6800   20.4010   13.4920   C 0  0  0  0  0  0  0  0  0  0  0  0
   15.0050   21.5620   14.2350   C 0  0  0  0  0  0  0  0  0  0  0  0
   14.0080   22.2730   14.8910   C 0  0  0  0  0  0  0  0  0  0  0  0
   13.7380   19.8450   18.6560   C 0  0  0  0  0  0  0  0  0  0  0  0
   13.8890   19.1960   19.8710   C 0  0  0  0  0  0  0  0  0  0  0  0
   12.8860   18.2970   20.3200   C 0  0  0  0  0  0  0  0  0  0  0  0
   11.7890   18.0390   19.5260   C 0  0  0  0  0  0  0  0  0  0  0  0
   11.6480   18.6910   18.3020   C 0  0  0  0  0  0  0  0  0  0  0  0
   12.5600   19.6570   17.9010   C 0  0  0  0  0  0  0  0  0  0  0  0
   10.4030   18.5360   17.4540   C 0  0  0  0  0  0  0  0  0  0  0  0
    9.4420   19.1980   17.8150   O 0  0  0  0  0  0  0  0  0  0  0  0
   10.4530   17.7540   16.3990   N 0  0  0  0  0  0  0  0  0  0  0  0
   11.6760   17.0440   15.9810   C 0  0  0  0  0  0  0  0  0  0  0  0
    9.1970   17.4930   15.6470   C 0  0  0  0  0  0  0  0  0  0  0  0
    9.0610   18.5220   14.5450   C 0  0  0  0  0  0  0  0  0  0  0  0
    8.8440   19.8130   14.7540   N 0  0  0  0  0  0  0  0  0  0  0  0
    8.6650   20.3970   13.5640   C 0  0  0  0  0  0  0  0  0  0  0  0
    8.8460   19.4990   12.6050   C 0  0  0  0  0  0  0  0  0  0  0  0
    8.7740   18.2600   13.2420   O 0  0  0  0  0  0  0  0  0  0  0  0
    8.7480   21.7610   13.4790   C 0  0  0  0  0  0  0  0  0  0  0  0
 45 46  1  0  0  0  0
 45 44  2  0  0  0  0
 46 42  1  0  0  0  0
 27 28  2  0  0  0  0
 27 26  1  0  0  0  0
 47 44  1  0  0  0  0
 28 29  1  0  0  0  0
 44 43  1  0  0  0  0
  2  1  1  0  0  0  0
  2  3  1  0  0  0  0
 26 25  2  0  0  0  0
 29 30  2  0  0  0  0
  8  1  2  0  0  0  0
  8  7  1  0  0  0  0
  1  4  1  0  0  0  0
 42 43  2  0  0  0  0
 42 41  1  0  0  0  0
 25 30  1  0  0  0  0
  7  6  2  0  0  0  0
 30 24  1  0  0  0  0
 10  9  2  0  0  0  0
  4  5  2  0  0  0  0
  6  5  1  0  0  0  0
  6  9  1  0  0  0  0
 41 39  1  0  0  0  0
 24 20  1  0  0  0  0
  9 11  2  0  0  0  0
  9 12  1  0  0  0  0
 40 39  1  0  0  0  0
 39 37  1  0  0  0  0
 20 21  1  0  0  0  0
 20 18  1  0  0  0  0
 17 12  1  0  0  0  0
 17 18  1  0  0  0  0
 12 13  1  0  0  0  0
 37 38  2  0  0  0  0
 37 35  1  0  0  0  0
 21 22  1  0  0  0  0
 36 35  2  0  0  0  0
 36 31  1  0  0  0  0
 18 19  1  0  0  0  0
 22 23  2  0  0  0  0
 22 31  1  0  0  0  0
 35 34  1  0  0  0  0
 13 14  1  0  0  0  0
 31 32  2  0  0  0  0
 34 33  2  0  0  0  0
 15 14  1  0  0  0  0
 14 16  1  0  0  0  0
 32 33  1  0  0  0  0
M  END
>  <InstanceId>
5UPZ_8HD_A_201

>  <ChemCompId>
8HD

>  <PdbId>
5UPZ

>  <ChainId>
A

>  <ResidueNumber>
201

>  <InsertionCode>


>  <Model>
1

>  <AltIds>


>  <MissingHeavyAtoms>
0

>  <ObservedFormula>
C35 N4 O7 S

>  <Name>
N~3~-{(2S,3R)-3-hydroxy-4-[{[4-(hydroxymethyl)phenyl]sulfonyl}(2-methylpropyl)amino]-1-phenylbutan-2-yl}-N~1~-methyl-N~1~-[(4-methyl-1,3-oxazol-2-yl)methyl]benzene-1,3-dicarboxamide

>  <SystematicName>
~{N}3-[(2~{S},3~{R})-4-[[4-(hydroxymethyl)phenyl]sulfonyl-(2-methylpropyl)amino]-3-oxidanyl-1-phenyl-butan-2-yl]-~{N}1-methyl-~{N}1-[(4-methyl-1,3-oxazol-2-yl)methyl]benzene-1,3-dicarboxamide

>  <Synonyms>


>  <Type>
NON-POLYMER

>  <Formula>
C35 H42 N4 O7 S

>  <MolecularWeight>
662.796

>  <ModifiedDate>
2017-05-05

>  <Parent>


>  <OneLetterCode>


>  <SubcomponentList>


>  <AmbiguousFlag>
N

>  <InChI>
InChI=1S/C35H42N4O7S/c1-24(2)19-39(47(44,45)30-15-13-27(22-40)14-16-30)20-32(41)31(17-26-9-6-5-7-10-26)37-34(42)28-11-8-12-29(18-28)35(43)38(4)21-33-36-25(3)23-46-33/h5-16,18,23-24,31-32,40-41H,17,19-22H2,1-4H3,(H,37,42)/t31-,32+/m0/s1

>  <InChIKey>
PQWSVCGBIGOYSI-AJQTZOPKSA-N

>  <SMILES>
Cc1coc(n1)CN(C)C(=O)c2cccc(c2)C(=O)N[C@@H](Cc3ccccc3)[C@@H](CN(CC(C)C)S(=O)(=O)c4ccc(cc4)CO)O

$$$$
