2CES_GIM_A_1447
  RCSB PDB08012016463D
Coordinates from PDB:2CES:A:1447 Model:1 without hydrogens
 14 15  0  0  0  0            999 V2000
   -0.9700   10.9490   10.6440   C 0  0  0  0  0  0  0  0  0  0  0  0
    0.0720   11.7060    9.8090   C 0  0  0  0  0  0  0  0  0  0  0  0
   -2.0430   10.3460   10.0900   N 0  3  0  0  0  0  0  0  0  0  0  0
   -0.3360   11.8420    8.3180   C 0  0  0  0  0  0  0  0  0  0  0  0
   -1.1040   10.5820    7.7780   C 0  0  0  0  0  0  0  0  0  0  0  0
   -2.3680   10.4650    8.6550   C 0  0  0  0  0  0  0  0  0  0  0  0
   -3.5330    9.5700    8.2970   C 0  0  0  0  0  0  0  0  0  0  0  0
   -1.9560    9.9340   12.2890   C 0  0  0  0  0  0  0  0  0  0  0  0
   -2.6270    9.6300   11.0880   C 0  0  0  0  0  0  0  0  0  0  0  0
   -0.9020   10.7300   11.9630   N 0  0  0  0  0  0  0  0  0  0  0  0
    0.8770   12.1430    7.5950   O 0  0  0  0  0  0  0  0  0  0  0  0
    0.6100   12.8660   10.4180   O 0  0  0  0  0  0  0  0  0  0  0  0
   -1.4750   10.7830    6.4060   O 0  0  0  0  0  0  0  0  0  0  0  0
   -2.9360    8.2870    8.5940   O 0  0  0  0  0  0  0  0  0  0  0  0
  1  2  1  0  0  0  0
  1  3  2  0  0  0  0
  1 10  1  0  0  0  0
  2  4  1  0  0  0  0
  2 12  1  0  0  0  0
  3  6  1  0  0  0  0
  3  9  1  0  0  0  0
  4  5  1  0  0  0  0
  4 11  1  0  0  0  0
  5  6  1  0  0  0  0
  5 13  1  0  0  0  0
  6  7  1  0  0  0  0
  7 14  1  0  0  0  0
  8  9  2  0  0  0  0
  8 10  1  0  0  0  0
M  CHG  1   3   1
M  END
>  <InstanceId>
2CES_GIM_A_1447

>  <ChemCompId>
GIM

>  <PdbId>
2CES

>  <ChainId>
A

>  <ResidueNumber>
1447

>  <InsertionCode>


>  <Model>
1

>  <AltIds>


>  <MissingHeavyAtoms>
0

>  <ObservedFormula>
C8 N2 O4

>  <Name>
GLUCOIMIDAZOLE

>  <SystematicName>
(5R,6R,7S,8S)-5-(hydroxymethyl)-5,6,7,8-tetrahydro-1H-imidazo[2,1-f]pyridin-4-ium-6,7,8-triol

>  <Synonyms>
(5S,6S,7R,8R)-5-(HYDROXYMETHYL)-1,5,6,7,8,8A-HEXAHYDROIMIDAZO[1,2-A]PYRIDINE-6,7,8-TRIOL

>  <Type>
NON-POLYMER

>  <Formula>
C8 H13 N2 O4

>  <MolecularWeight>
201.2

>  <ModifiedDate>
2011-06-04

>  <Parent>


>  <OneLetterCode>


>  <SubcomponentList>


>  <AmbiguousFlag>
N

>  <InChI>
InChI=1S/C8H12N2O4/c11-3-4-5(12)6(13)7(14)8-9-1-2-10(4)8/h1-2,4-7,11-14H,3H2/p+1/t4-,5-,6+,7-/m1/s1

>  <InChIKey>
RZRDQZQPTISYKY-MVIOUDGNSA-O

>  <SMILES>
c1c[n+]2c([nH]1)[C@@H]([C@H]([C@@H]([C@H]2CO)O)O)O

$$$$
