5CU4_54S_A_404
  RCSB PDB08022001003D
Coordinates from PDB:5CU4:A:404 Model:1 without hydrogens
 34 36  0  0  0  0            999 V2000
 -143.2720 -172.1270  361.2790   C 0  0  0  0  0  0  0  0  0  0  0  0
 -141.1090 -171.1860  361.8750   C 0  0  0  0  0  0  0  0  0  0  0  0
 -139.7190 -171.4590  362.3950   C 0  0  0  0  0  0  0  0  0  0  0  0
 -139.4290 -172.6170  363.0970   C 0  0  0  0  0  0  0  0  0  0  0  0
 -137.1250 -171.9470  363.3660   C 0  0  0  0  0  0  0  0  0  0  0  0
 -137.4300 -170.7870  362.6650   C 0  0  0  0  0  0  0  0  0  0  0  0
 -138.6990 -170.5430  362.1810   C 0  0  0  0  0  0  0  0  0  0  0  0
 -135.7610 -172.2660  363.8720   C 0  0  0  0  0  0  0  0  0  0  0  0
 -134.7160 -172.5430  362.9910   C 0  0  0  0  0  0  0  0  0  0  0  0
 -133.4550 -172.8550  363.4660   C 0  0  0  0  0  0  0  0  0  0  0  0
 -133.2120 -172.8990  364.8210   C 0  0  0  0  0  0  0  0  0  0  0  0
 -134.2300 -172.6230  365.7030   C 0  0  0  0  0  0  0  0  0  0  0  0
 -136.2070 -169.5880  362.3770  Cl 0  0  0  0  0  0  0  0  0  0  0  0
 -135.4940 -172.3080  365.2390   C 0  0  0  0  0  0  0  0  0  0  0  0
 -138.1570 -172.8620  363.5790   C 0  0  0  0  0  0  0  0  0  0  0  0
 -141.9970 -172.3450  361.9660   N 0  0  0  0  0  0  0  0  0  0  0  0
 -144.2810 -173.2120  361.5890   C 0  0  0  0  0  0  0  0  0  0  0  0
 -145.5720 -173.0230  360.8310   C 0  0  0  0  0  0  0  0  0  0  0  0
 -145.5880 -172.9590  359.6090   O 0  0  0  0  0  0  0  0  0  0  0  0
 -146.6730 -172.9430  361.5710   N 0  0  0  0  0  0  0  0  0  0  0  0
 -147.9690 -172.5590  361.0280   C 0  0  0  0  0  0  0  0  0  0  0  0
 -148.8150 -173.7630  360.6670   C 0  0  0  0  0  0  0  0  0  0  0  0
 -149.2030 -174.5840  361.8750   C 0  0  0  0  0  0  0  0  0  0  0  0
 -149.2050 -174.1120  363.0030   O 0  0  0  0  0  0  0  0  0  0  0  0
 -149.4990 -175.8720  361.5930   N 0  0  0  0  0  0  0  0  0  0  0  0
 -149.9360 -176.8930  362.4740   C 0  0  0  0  0  0  0  0  0  0  0  0
 -150.2430 -176.6770  363.8100   C 0  0  0  0  0  0  0  0  0  0  0  0
 -150.4770 -177.7550  364.6450   C 0  0  0  0  0  0  0  0  0  0  0  0
 -150.4030 -179.0470  364.1570   C 0  0  0  0  0  0  0  0  0  0  0  0
 -149.9000 -178.1890  361.9780   C 0  0  0  0  0  0  0  0  0  0  0  0
 -150.1110 -179.2750  362.8190   C 0  0  0  0  0  0  0  0  0  0  0  0
 -149.8670 -180.6510  362.3130   C 0  0  0  0  0  0  0  0  0  0  0  0
 -149.7780 -180.8770  361.1190   O 0  0  0  0  0  0  0  0  0  0  0  0
 -149.8230 -181.5770  363.2220   O 0  0  0  0  0  0  0  0  0  0  0  0
 13  6  1  0  0  0  0
  6  7  2  0  0  0  0
  6  5  1  0  0  0  0
  7  3  1  0  0  0  0
 12 14  2  0  0  0  0
 12 11  1  0  0  0  0
 14  8  1  0  0  0  0
 11 10  2  0  0  0  0
 10  9  1  0  0  0  0
  8  9  2  0  0  0  0
  8  5  1  0  0  0  0
  5 15  2  0  0  0  0
  3  2  1  0  0  0  0
  3  4  2  0  0  0  0
  2 16  1  0  0  0  0
 15  4  1  0  0  0  0
 16  1  1  0  0  0  0
  1 17  1  0  0  0  0
 19 18  2  0  0  0  0
 17 18  1  0  0  0  0
 18 20  1  0  0  0  0
 20 21  1  0  0  0  0
 21 22  1  0  0  0  0
 22 23  1  0  0  0  0
 23 25  1  0  0  0  0
 23 24  2  0  0  0  0
 25 26  1  0  0  0  0
 26 30  2  0  0  0  0
 26 27  1  0  0  0  0
 30 31  1  0  0  0  0
 33 32  2  0  0  0  0
 27 28  2  0  0  0  0
 31 32  1  0  0  0  0
 31 29  2  0  0  0  0
 32 34  1  0  0  0  0
 28 29  1  0  0  0  0
M  END
>  <InstanceId>
5CU4_54S_A_404

>  <ChemCompId>
54S

>  <PdbId>
5CU4

>  <ChainId>
A

>  <ResidueNumber>
404

>  <InsertionCode>


>  <Model>
1

>  <AltIds>


>  <MissingHeavyAtoms>
0

>  <ObservedFormula>
C26 N3 O4 Cl

>  <Name>
N-[(2-chlorobiphenyl-4-yl)methyl]-beta-alanyl-N-(3-carboxyphenyl)-beta-alaninamide

>  <SystematicName>
3-[3-[3-[(3-chloranyl-4-phenyl-phenyl)methylamino]propanoylamino]propanoylamino]benzoic acid

>  <Synonyms>


>  <Type>
NON-POLYMER

>  <Formula>
C26 H26 Cl N3 O4

>  <MolecularWeight>
479.955

>  <ModifiedDate>
2016-07-22

>  <Parent>


>  <OneLetterCode>


>  <SubcomponentList>


>  <AmbiguousFlag>
N

>  <InChI>
InChI=1S/C26H26ClN3O4/c27-23-15-18(9-10-22(23)19-5-2-1-3-6-19)17-28-13-11-24(31)29-14-12-25(32)30-21-8-4-7-20(16-21)26(33)34/h1-10,15-16,28H,11-14,17H2,(H,29,31)(H,30,32)(H,33,34)

>  <InChIKey>
NZDQDPKZQDWCOF-UHFFFAOYSA-N

>  <SMILES>
c1ccc(cc1)c2ccc(cc2Cl)CNCCC(=O)NCCC(=O)Nc3cccc(c3)C(=O)O

$$$$
