3PGU_OLA_A_448
  RCSB PDB08012020083D
Coordinates from PDB:3PGU:A:448 Model:1 without hydrogens
 13 12  0  0  0  0            999 V2000
  -26.7480    9.6610  -22.3670   C 0  0  0  0  0  0  0  0  0  0  0  0
  -27.8800    9.1050  -22.4220   O 0  0  0  0  0  0  0  0  0  0  0  0
  -26.4390   10.5290  -23.2140   O 0  0  0  0  0  0  0  0  0  0  0  0
  -25.7670    9.3270  -21.2960   C 0  0  0  0  0  0  0  0  0  0  0  0
  -26.1420    8.3300  -20.2550   C 0  0  0  0  0  0  0  0  0  0  0  0
  -25.3120    8.1890  -19.1790   C 0  0  0  0  0  0  0  0  0  0  0  0
  -25.7230    7.3380  -18.0300   C 0  0  0  0  0  0  0  0  0  0  0  0
  -25.9630    5.8980  -18.3030   C 0  0  0  0  0  0  0  0  0  0  0  0
  -25.5660    4.9430  -17.2300   C 0  0  0  0  0  0  0  0  0  0  0  0
  -26.0270    5.2500  -15.8490   C 0  0  0  0  0  0  0  0  0  0  0  0
  -27.4940    5.4110  -15.6270   C 0  0  0  0  0  0  0  0  0  0  0  0
  -27.9390    6.4150  -14.8130   C 0  0  0  0  0  0  0  0  0  0  0  0
  -29.3980    6.5840  -14.5520   C 0  0  0  0  0  0  0  0  0  0  0  0
  1  2  2  0  0  0  0
  1  3  1  0  0  0  0
  1  4  1  0  0  0  0
  4  5  1  0  0  0  0
  5  6  1  0  0  0  0
  6  7  1  0  0  0  0
  7  8  1  0  0  0  0
  8  9  1  0  0  0  0
  9 10  1  0  0  0  0
 10 11  1  0  0  0  0
 11 12  2  0  0  0  0
 12 13  1  0  0  0  0
M  END
>  <InstanceId>
3PGU_OLA_A_448

>  <ChemCompId>
OLA

>  <PdbId>
3PGU

>  <ChainId>
A

>  <ResidueNumber>
448

>  <InsertionCode>


>  <Model>
1

>  <AltIds>


>  <MissingHeavyAtoms>
7

>  <ObservedFormula>
C11 O2

>  <Name>
OLEIC ACID

>  <SystematicName>
(Z)-octadec-9-enoic acid

>  <Synonyms>


>  <Type>
NON-POLYMER

>  <Formula>
C18 H34 O2

>  <MolecularWeight>
282.461

>  <ModifiedDate>
2011-06-04

>  <Parent>


>  <OneLetterCode>


>  <SubcomponentList>


>  <AmbiguousFlag>
N

>  <InChI>
InChI=1S/C18H34O2/c1-2-3-4-5-6-7-8-9-10-11-12-13-14-15-16-17-18(19)20/h9-10H,2-8,11-17H2,1H3,(H,19,20)/b10-9-

>  <InChIKey>
ZQPPMHVWECSIRJ-KTKRTIGZSA-N

>  <SMILES>
CCCCCCCC\C=C/CCCCCCCC(=O)O

$$$$
