6F9U_D0W_A_711
  RCSB PDB08022004383D
Coordinates from PDB:6F9U:A:711 Model:1 without hydrogens
 38 39  0  0  0  0            999 V2000
  -13.7850   -5.4290   15.9570   C 0  0  0  0  0  0  0  0  0  0  0  0
  -12.8210   -5.9820   16.9240   N 0  0  0  0  0  0  0  0  0  0  0  0
  -12.9780   -7.3500   17.4460   C 0  0  0  0  0  0  0  0  0  0  0  0
  -13.7960   -8.7450   19.3850   C 0  0  0  0  0  0  0  0  0  0  0  0
  -14.4320  -10.4590   21.1550   C 0  0  0  0  0  0  0  0  0  0  0  0
  -15.2210   -8.2330   21.3150   C 0  0  0  0  0  0  0  0  0  0  0  0
  -12.8260   -8.6210   21.7560   C 0  0  0  0  0  0  0  0  0  0  0  0
  -11.9260   -7.9360   23.9970   C 0  0  0  0  0  0  0  0  0  0  0  0
  -13.7690   -7.5020   25.7270   C 0  0  0  0  0  0  0  0  0  0  0  0
  -15.2960   -8.8860   26.9520   C 0  0  0  0  0  0  0  0  0  0  0  0
  -12.3210   -1.8840   13.6190   C 0  0  0  0  0  0  0  0  0  0  0  0
  -13.3830   -2.8740   13.1290   C 0  0  0  0  0  0  0  0  0  0  0  0
  -13.6730   -3.9980   15.4050   C 0  0  0  0  0  0  0  0  0  0  0  0
  -14.7220   -3.1430   16.1140   C 0  0  0  0  0  0  0  0  0  0  0  0
  -14.4130   -1.6500   16.0270   C 0  0  0  0  0  0  0  0  0  0  0  0
  -13.2560   -7.3690   18.9500   C 0  0  0  0  0  0  0  0  0  0  0  0
  -14.0780   -8.9020   20.8870   C 0  0  0  0  0  0  0  0  0  0  0  0
  -15.5660  -10.4940   22.2660   C 0  0  0  0  0  0  0  0  0  0  0  0
  -15.9580   -9.1790   22.4960   C 0  0  0  0  0  0  0  0  0  0  0  0
  -12.3560   -7.1760   25.2470   C 0  0  0  0  0  0  0  0  0  0  0  0
  -14.0090   -8.6110   26.5190   C 0  0  0  0  0  0  0  0  0  0  0  0
  -16.3410   -8.0430   26.5910   C 0  0  0  0  0  0  0  0  0  0  0  0
  -16.0960   -6.9310   25.8020   C 0  0  0  0  0  0  0  0  0  0  0  0
  -14.8060   -6.6550   25.3690   C 0  0  0  0  0  0  0  0  0  0  0  0
  -11.4130   -9.3260   24.4330   C 0  0  0  0  0  0  0  0  0  0  0  0
  -14.2890   -6.2950   19.2490   C 0  0  0  0  0  0  0  0  0  0  0  0
  -13.9970   -3.8840   13.9920   N 0  0  0  0  0  0  0  0  0  0  0  0
  -13.0450   -8.1600   23.1040   N 0  0  0  0  0  0  0  0  0  0  0  0
  -13.6990   -2.8240   11.9880   O 0  0  0  0  0  0  0  0  0  0  0  0
  -15.0050   -0.9340   15.1710   O 0  0  0  0  0  0  0  0  0  0  0  0
  -13.5500   -1.1460   16.7980   O 0  0  0  0  0  0  0  0  0  0  0  0
  -14.7120   -6.0760   15.6170   O 0  0  0  0  0  0  0  0  0  0  0  0
  -11.7060   -8.8130   21.3660   O 0  0  0  0  0  0  0  0  0  0  0  0
  -17.6520   -8.3030   27.0200   O 0  0  0  0  0  0  0  0  0  0  0  0
  -12.1560  -10.3300   24.2640   O 0  0  0  0  0  0  0  0  0  0  0  0
  -10.2660   -9.5110   24.9440   O 0  0  0  0  0  0  0  0  0  0  0  0
  -13.9820   -5.3610   20.0460   O 0  0  0  0  0  0  0  0  0  0  0  0
  -15.4270   -6.3620   18.6990   O 0  0  0  0  0  0  0  0  0  0  0  0
 36 25  2  0  0  0  0
 24 23  2  0  0  0  0
 24  9  1  0  0  0  0
 20  9  1  0  0  0  0
 20  8  1  0  0  0  0
 25 35  1  0  0  0  0
 25  8  1  0  0  0  0
 23 22  1  0  0  0  0
  9 21  2  0  0  0  0
  8 28  1  0  0  0  0
 22 34  1  0  0  0  0
 22 10  2  0  0  0  0
 21 10  1  0  0  0  0
 28  7  1  0  0  0  0
 33  7  2  0  0  0  0
  7 17  1  0  0  0  0
  5 18  1  0  0  0  0
  5 17  1  0  0  0  0
 19 18  1  0  0  0  0
 19  6  1  0  0  0  0
 17  6  1  0  0  0  0
 17  4  1  0  0  0  0
  4 16  1  0  0  0  0
 38 26  2  0  0  0  0
 16 26  1  0  0  0  0
 16  3  1  0  0  0  0
 26 37  1  0  0  0  0
  3  2  1  0  0  0  0
  2  1  1  0  0  0  0
  1 32  2  0  0  0  0
  1 13  1  0  0  0  0
 13 14  1  0  0  0  0
 13 27  1  0  0  0  0
 14 15  1  0  0  0  0
 31 15  2  0  0  0  0
 29 12  2  0  0  0  0
 15 30  1  0  0  0  0
 27 12  1  0  0  0  0
 12 11  1  0  0  0  0
M  END
>  <InstanceId>
6F9U_D0W_A_711

>  <ChemCompId>
D0W

>  <PdbId>
6F9U

>  <ChainId>
A

>  <ResidueNumber>
711

>  <InsertionCode>


>  <Model>
1

>  <AltIds>


>  <MissingHeavyAtoms>
0

>  <ObservedFormula>
C25 N3 O10

>  <Name>
Sampatrilat-Asp

>  <SystematicName>
(3~{S})-3-acetamido-4-[[(2~{S})-2-[[1-[[(2~{S})-3-(4-hydroxyphenyl)-1-oxidanyl-1-oxidanylidene-propan-2-yl]carbamoyl]cyclopentyl]methyl]-3-oxidanyl-3-oxidanylidene-propyl]amino]-4-oxidanylidene-butanoic acid

>  <Synonyms>


>  <Type>
NON-POLYMER

>  <Formula>
C25 H33 N3 O10

>  <MolecularWeight>
535.544

>  <ModifiedDate>
2018-03-02

>  <Parent>


>  <OneLetterCode>


>  <SubcomponentList>


>  <AmbiguousFlag>
N

>  <InChI>
InChI=1S/C25H33N3O10/c1-14(29)27-18(11-20(31)32)21(33)26-13-16(22(34)35)12-25(8-2-3-9-25)24(38)28-19(23(36)37)10-15-4-6-17(30)7-5-15/h4-7,16,18-19,30H,2-3,8-13H2,1H3,(H,26,33)(H,27,29)(H,28,38)(H,31,32)(H,34,35)(H,36,37)/t16-,18-,19-/m0/s1

>  <InChIKey>
ZQIWHIVXBQEYTN-WDSOQIARSA-N

>  <SMILES>
CC(=O)N[C@@H](CC(=O)O)C(=O)NC[C@H](CC1(CCCC1)C(=O)N[C@@H](Cc2ccc(cc2)O)C(=O)O)C(=O)O

$$$$
