4B5S_PYR_A_1256
  RCSB PDB08012021113D
Coordinates from PDB:4B5S:A:1256 Model:1 without hydrogens
  6  5  0  0  0  0            999 V2000
  -48.5870  -31.3390  -18.0920   C 0  0  0  0  0  0  0  0  0  0  0  0
  -49.2790  -30.7750  -17.1390   O 0  0  0  0  0  0  0  0  0  0  0  0
  -49.1070  -31.4810  -19.2950   O 0  0  0  0  0  0  0  0  0  0  0  0
  -47.2980  -31.8030  -17.8250   C 0  0  0  0  0  0  0  0  0  0  0  0
  -46.5990  -32.2960  -18.8110   O 0  0  0  0  0  0  0  0  0  0  0  0
  -46.7360  -31.7890  -16.4370   C 0  0  0  0  0  0  0  0  0  0  0  0
  1  2  2  0  0  0  0
  1  3  1  0  0  0  0
  1  4  1  0  0  0  0
  4  5  2  0  0  0  0
  4  6  1  0  0  0  0
M  END
>  <InstanceId>
4B5S_PYR_A_1256

>  <ChemCompId>
PYR

>  <PdbId>
4B5S

>  <ChainId>
A

>  <ResidueNumber>
1256

>  <InsertionCode>


>  <Model>
1

>  <AltIds>


>  <MissingHeavyAtoms>
0

>  <ObservedFormula>
C3 O3

>  <Name>
PYRUVIC ACID

>  <SystematicName>
2-oxidanylidenepropanoic acid

>  <Synonyms>


>  <Type>
NON-POLYMER

>  <Formula>
C3 H4 O3

>  <MolecularWeight>
88.062

>  <ModifiedDate>
2017-11-15

>  <Parent>


>  <OneLetterCode>


>  <SubcomponentList>


>  <AmbiguousFlag>
N

>  <InChI>
InChI=1S/C3H4O3/c1-2(4)3(5)6/h1H3,(H,5,6)

>  <InChIKey>
LCTONWCANYUPML-UHFFFAOYSA-N

>  <SMILES>
CC(=O)C(=O)O

$$$$
