4CPT_1T8_B_1202
  RCSB PDB08012021243D
Coordinates from PDB:4CPT:B:1202 Model:1 without hydrogens
 53 56  0  0  0  0            999 V2000
    7.8350   23.4840    2.7730   C 0  0  0  0  0  0  0  0  0  0  0  0
    9.0990   23.0340    3.1410   C 0  0  0  0  0  0  0  0  0  0  0  0
   10.2220   23.8290    2.9230   C 0  0  0  0  0  0  0  0  0  0  0  0
   11.4750   23.4640    3.4340   C 0  0  0  0  0  0  0  0  0  0  0  0
   10.0680   25.0370    2.2540   C 0  0  0  0  0  0  0  0  0  0  0  0
    8.8020   25.4970    1.9090   C 0  0  0  0  0  0  0  0  0  0  0  0
    7.6760   24.7220    2.1540   C 0  0  0  0  0  0  0  0  0  0  0  0
    6.4140   25.2120    1.7890   C 0  0  0  0  0  0  0  0  0  0  0  0
    5.4170   24.8740    2.7070   C 0  0  0  0  0  0  0  0  0  0  0  0
    5.1920   25.5620    3.9040   C 0  0  0  0  0  0  0  0  0  0  0  0
    6.0780   26.5090    4.4230   C 0  0  0  0  0  0  0  0  0  0  0  0
    6.9930   25.8500    5.3840   N 0  0  0  0  0  0  0  0  0  0  0  0
    8.2080   26.4520    5.7240   C 0  0  0  0  0  0  0  0  0  0  0  0
    8.4740   27.5340    5.1960   O 0  0  0  0  0  0  0  0  0  0  0  0
    9.1690   25.7330    6.4700   C 0  0  0  0  0  0  0  0  0  0  0  0
    9.5330   26.5320    7.7300   C 0  0  0  0  0  0  0  0  0  0  0  0
    8.2790   26.7280    8.5880   C 0  0  0  0  0  0  0  0  0  0  0  0
   10.6040   25.7920    8.5380   C 0  0  0  0  0  0  0  0  0  0  0  0
   10.3730   25.5260    5.6250   N 0  0  0  0  0  0  0  0  0  0  0  0
   11.0380   24.2960    5.5340   C 0  0  0  0  0  0  0  0  0  0  0  0
   10.5840   23.3230    6.1440   O 0  0  0  0  0  0  0  0  0  0  0  0
   12.0230   24.1550    4.5400   C 0  0  0  0  0  0  0  0  0  0  0  0
   12.4380   25.4660    4.1210   O 0  0  0  0  0  0  0  0  0  0  0  0
   13.2760   23.4260    5.0700   C 0  0  0  0  0  0  0  0  0  0  0  0
   13.6300   23.9230    6.4840   C 0  0  0  0  0  0  0  0  0  0  0  0
   15.1290   23.7600    6.7790   C 0  0  0  0  0  0  0  0  0  0  0  0
   15.4910   22.3770    7.1440   N 0  0  0  0  0  0  0  0  0  0  0  0
   15.8930   21.6160    6.2070   N 0  0  0  0  0  0  0  0  0  0  0  0
   15.3770   20.5260    5.6070   C 0  0  0  0  0  0  0  0  0  0  0  0
   14.0710   20.1770    6.0640   O 0  0  0  0  0  0  0  0  0  0  0  0
   16.1520   19.7380    4.8150   C 0  0  0  0  0  0  0  0  0  0  0  0
   15.4770   18.9870    3.6540   C 0  0  0  0  0  0  0  0  0  0  0  0
   14.5890   17.8600    4.1950   C 0  0  0  0  0  0  0  0  0  0  0  0
   14.6280   19.9550    2.8320   C 0  0  0  0  0  0  0  0  0  0  0  0
   16.5510   18.3710    2.7590   C 0  0  0  0  0  0  0  0  0  0  0  0
   16.8510   18.7510    5.6530   N 0  0  0  0  0  0  0  0  0  0  0  0
   18.1810   18.7530    5.7890   C 0  0  0  0  0  0  0  0  0  0  0  0
   18.8780   19.5100    5.1070   O 0  0  0  0  0  0  0  0  0  0  0  0
   18.7450   17.9010    6.6900   O 0  0  0  0  0  0  0  0  0  0  0  0
   20.1590   18.0940    6.7910   C 0  0  0  0  0  0  0  0  0  0  0  0
   16.1380   22.1990    8.3200   C 0  0  0  0  0  0  0  0  0  0  0  0
   16.2400   20.9050    8.8360   C 0  0  0  0  0  0  0  0  0  0  0  0
   17.4810   20.2900    8.9720   C 0  0  0  0  0  0  0  0  0  0  0  0
   17.6050   19.0590    9.6220   C 0  0  0  0  0  0  0  0  0  0  0  0
   15.1560   20.3580    9.5030   C 0  0  0  0  0  0  0  0  0  0  0  0
   15.2670   19.1190   10.1230   C 0  0  0  0  0  0  0  0  0  0  0  0
   16.4880   18.4660   10.1990   C 0  0  0  0  0  0  0  0  0  0  0  0
   16.5690   17.2360   10.8560   C 0  0  0  0  0  0  0  0  0  0  0  0
   17.6830   16.9280   11.6280   C 0  0  0  0  0  0  0  0  0  0  0  0
   17.7250   15.7470   12.3620   C 0  0  0  0  0  0  0  0  0  0  0  0
   16.6270   14.8970   12.3850   C 0  0  0  0  0  0  0  0  0  0  0  0
   15.4650   15.2460   11.6900   N 0  0  0  0  0  0  0  0  0  0  0  0
   15.4470   16.4150   10.9170   C 0  0  0  0  0  0  0  0  0  0  0  0
  1  2  1  0  0  0  0
  1  7  2  0  0  0  0
  2  3  2  0  0  0  0
  3  4  1  0  0  0  0
  3  5  1  0  0  0  0
  4 22  1  0  0  0  0
  5  6  2  0  0  0  0
  6  7  1  0  0  0  0
  7  8  1  0  0  0  0
  8  9  1  0  0  0  0
  9 10  2  0  0  0  0
 10 11  1  0  0  0  0
 11 12  1  0  0  0  0
 12 13  1  0  0  0  0
 13 14  2  0  0  0  0
 13 15  1  0  0  0  0
 15 16  1  0  0  0  0
 15 19  1  0  0  0  0
 16 17  1  0  0  0  0
 16 18  1  0  0  0  0
 19 20  1  0  0  0  0
 20 21  2  0  0  0  0
 20 22  1  0  0  0  0
 22 23  1  0  0  0  0
 22 24  1  0  0  0  0
 24 25  1  0  0  0  0
 25 26  1  0  0  0  0
 26 27  1  0  0  0  0
 27 28  1  0  0  0  0
 27 41  1  0  0  0  0
 28 29  1  0  0  0  0
 29 30  2  0  0  0  0
 29 31  1  0  0  0  0
 31 32  1  0  0  0  0
 31 36  1  0  0  0  0
 32 33  1  0  0  0  0
 32 34  1  0  0  0  0
 32 35  1  0  0  0  0
 36 37  1  0  0  0  0
 37 38  2  0  0  0  0
 37 39  1  0  0  0  0
 39 40  1  0  0  0  0
 41 42  1  0  0  0  0
 42 43  1  0  0  0  0
 42 45  2  0  0  0  0
 43 44  2  0  0  0  0
 44 47  1  0  0  0  0
 45 46  1  0  0  0  0
 46 47  2  0  0  0  0
 47 48  1  0  0  0  0
 48 49  1  0  0  0  0
 48 53  2  0  0  0  0
 49 50  2  0  0  0  0
 50 51  1  0  0  0  0
 51 52  2  0  0  0  0
 52 53  1  0  0  0  0
M  END
>  <InstanceId>
4CPT_1T8_B_1202

>  <ChemCompId>
1T8

>  <PdbId>
4CPT

>  <ChainId>
B

>  <ResidueNumber>
1202

>  <InsertionCode>


>  <Model>
1

>  <AltIds>


>  <MissingHeavyAtoms>
0

>  <ObservedFormula>
C41 N6 O6

>  <Name>
methyl [(2S)-1-(2-{3-[(3R,6S,10Z)-3-hydroxy-4,7-dioxo-6-(propan-2-yl)-5,8-diazabicyclo[11.2.2]heptadeca-1(15),10,13,16-tetraen-3-yl]propyl}-2-[4-(pyridin-3-yl)benzyl]hydrazinyl)-3,3-dimethyl-1-oxobutan-2-yl]carbamate

>  <SystematicName>
methyl N-[(2S)-3,3-dimethyl-1-[2-[3-[(3Z,8S,11R)-11-oxidanyl-7,10-bis(oxidanylidene)-8-propan-2-yl-6,9-diazabicyclo[11.2.2]heptadeca-1(16),3,13(17),14-tetraen-11-yl]propyl]-2-[(4-pyridin-3-ylphenyl)methyl]hydrazinyl]-1-oxidanylidene-butan-2-yl]carbamate

>  <Synonyms>


>  <Type>
non-polymer

>  <Formula>
C41 H54 N6 O6

>  <MolecularWeight>
726.904

>  <ModifiedDate>
2014-12-12

>  <Parent>


>  <OneLetterCode>


>  <SubcomponentList>


>  <AmbiguousFlag>
N

>  <InChI>
InChI=1S/C41H54N6O6/c1-28(2)34-36(48)43-23-8-7-11-29-13-15-30(16-14-29)25-41(52,38(50)44-34)21-10-24-47(46-37(49)35(40(3,4)5)45-39(51)53-6)27-31-17-19-32(20-18-31)33-12-9-22-42-26-33/h7-9,12-20,22,26,28,34-35,52H,10-11,21,23-25,27H2,1-6H3,(H,43,48)(H,44,50)(H,45,51)(H,46,49)/b8-7-/t34-,35+,41+/m0/s1

>  <InChIKey>
NKAIBDUEJMTLGH-UGLCWRDGSA-N

>  <SMILES>
CC(C)[C@H]1C(=O)NC/C=C\Cc2ccc(cc2)C[C@@](C(=O)N1)(CCCN(Cc3ccc(cc3)c4cccnc4)NC(=O)[C@H](C(C)(C)C)NC(=O)OC)O

$$$$
