5NXP_9DH_A_302
  RCSB PDB08022002363D
Coordinates from PDB:5NXP:A:302 Model:1 without hydrogens
 22 23  0  0  0  0            999 V2000
   -5.6220    6.0360   14.6950   C 0  0  0  0  0  0  0  0  0  0  0  0
   -6.1260    4.9490   15.4380   C 0  0  0  0  0  0  0  0  0  0  0  0
   -5.2930    3.9490   15.9140   C 0  0  0  0  0  0  0  0  0  0  0  0
   -5.8870    2.5660   16.7920   S 0  0  0  0  0  0  0  0  0  0  0  0
   -5.3660    2.6600   18.1490   O 0  0  0  0  0  0  0  0  0  0  0  0
   -7.3600    2.6410   16.6610   O 0  0  0  0  0  0  0  0  0  0  0  0
   -5.3130    1.2950   16.1110   N 0  0  0  0  0  0  0  0  0  0  0  0
   -3.9210    4.0390   15.6240   C 0  0  0  0  0  0  0  0  0  0  0  0
   -3.4170    5.1070   14.8900   C 0  0  0  0  0  0  0  0  0  0  0  0
   -4.2420    6.0890   14.4100   C 0  0  0  0  0  0  0  0  0  0  0  0
   -3.5480    7.0540   13.7280   N 0  0  0  0  0  0  0  0  0  0  0  0
   -4.0740    7.8290   12.7870   C 0  0  0  0  0  0  0  0  0  0  0  0
   -5.2770    7.8810   12.5580   O 0  0  0  0  0  0  0  0  0  0  0  0
   -3.1300    8.7970   12.0190   C 0  0  0  0  0  0  0  0  0  0  0  0
   -1.6400    8.7550   12.2740   N 0  0  0  0  0  0  0  0  0  0  0  0
   -0.7520    7.9190   11.4300   C 0  0  0  0  0  0  0  0  0  0  0  0
   -1.0330    9.6050   13.1290   C 0  0  0  0  0  0  0  0  0  0  0  0
    0.2230   10.2170   12.9040   C 0  0  0  0  0  0  0  0  0  0  0  0
    0.7530   11.1070   13.8380   C 0  0  0  0  0  0  0  0  0  0  0  0
    0.0520   11.4190   15.0020   C 0  0  0  0  0  0  0  0  0  0  0  0
   -1.1780   10.8110   15.2360   C 0  0  0  0  0  0  0  0  0  0  0  0
   -1.7000    9.9300   14.3170   C 0  0  0  0  0  0  0  0  0  0  0  0
 16 15  1  0  0  0  0
 14 15  1  0  0  0  0
 14 12  1  0  0  0  0
 15 17  1  0  0  0  0
 13 12  2  0  0  0  0
 12 11  1  0  0  0  0
 18 17  2  0  0  0  0
 18 19  1  0  0  0  0
 17 22  1  0  0  0  0
 11 10  1  0  0  0  0
 19 20  2  0  0  0  0
 22 21  2  0  0  0  0
 10  1  2  0  0  0  0
 10  9  1  0  0  0  0
  1  2  1  0  0  0  0
  9  8  2  0  0  0  0
 20 21  1  0  0  0  0
  2  3  2  0  0  0  0
  8  3  1  0  0  0  0
  3  4  1  0  0  0  0
  7  4  1  0  0  0  0
  6  4  2  0  0  0  0
  4  5  2  0  0  0  0
M  END
>  <InstanceId>
5NXP_9DH_A_302

>  <ChemCompId>
9DH

>  <PdbId>
5NXP

>  <ChainId>
A

>  <ResidueNumber>
302

>  <InsertionCode>


>  <Model>
1

>  <AltIds>


>  <MissingHeavyAtoms>
0

>  <ObservedFormula>
C15 N3 O3 S

>  <Name>
2-[methyl(phenyl)amino]-~{N}-(4-sulfamoylphenyl)ethanamide

>  <SystematicName>
2-[methyl(phenyl)amino]-~{N}-(4-sulfamoylphenyl)ethanamide

>  <Synonyms>


>  <Type>
NON-POLYMER

>  <Formula>
C15 H17 N3 O3 S

>  <MolecularWeight>
319.379

>  <ModifiedDate>
2018-01-12

>  <Parent>


>  <OneLetterCode>


>  <SubcomponentList>


>  <AmbiguousFlag>
N

>  <InChI>
InChI=1S/C15H17N3O3S/c1-18(13-5-3-2-4-6-13)11-15(19)17-12-7-9-14(10-8-12)22(16,20)21/h2-10H,11H2,1H3,(H,17,19)(H2,16,20,21)

>  <InChIKey>
MQSDUMCFPHSRSY-UHFFFAOYSA-N

>  <SMILES>
CN(CC(=O)Nc1ccc(cc1)S(=O)(=O)N)c2ccccc2

$$$$
