4M2R_BZ1_A_302
  RCSB PDB08012022283D
Coordinates from PDB:4M2R:A:302 Model:1 without hydrogens
 23 24  0  0  0  0            999 V2000
   19.3320    7.7930   13.9050   C 0  0  0  0  0  0  0  0  0  0  0  0
   17.0760    3.3690   14.4870   C 0  0  0  0  0  0  0  0  0  0  0  0
   16.0340    4.2130   14.7560   C 0  0  0  0  0  0  0  0  0  0  0  0
   18.3010    3.5160   13.6450   C 0  0  0  0  0  0  0  0  0  0  0  0
   18.6110    4.9650   13.4820   C 0  0  0  0  0  0  0  0  0  0  0  0
   15.3480    0.6850   16.8540   S 0  0  0  0  0  0  0  0  0  0  0  0
   19.8300    9.1330   13.4760   C 0  0  0  0  0  0  0  0  0  0  0  0
   19.8030    1.9320   10.5290   C 0  0  0  0  0  0  0  0  0  0  0  0
   19.5760    2.7470   11.7770   C 0  0  0  0  0  0  0  0  0  0  0  0
   14.9960    3.4670   15.7860   S 0  0  0  0  0  0  0  0  0  0  0  0
   15.9470   -0.6850   16.2080   N 0  0  0  0  0  0  0  0  0  0  0  0
   13.8900    0.7850   16.8530   O 0  0  0  0  0  0  0  0  0  0  0  0
   15.8250    0.8750   18.2290   O 0  0  0  0  0  0  0  0  0  0  0  0
   15.8800    2.0250   15.8720   C 0  0  0  0  0  0  0  0  0  0  0  0
   17.0580    2.1070   15.0910   C 0  0  0  0  0  0  0  0  0  0  0  0
   16.0800    5.8060   14.0710   S 0  0  0  0  0  0  0  0  0  0  0  0
   15.8470    6.5690   15.2880   O 0  0  0  0  0  0  0  0  0  0  0  0
   15.0240    5.9900   13.0760   O 0  0  0  0  0  0  0  0  0  0  0  0
   17.6140    5.9990   13.4680   N 0  0  0  0  0  0  0  0  0  0  0  0
   18.2770    2.7760   12.4070   N 0  0  0  0  0  0  0  0  0  0  0  0
   18.1850    7.2540   13.1200   C 0  0  0  0  0  0  0  0  0  0  0  0
   20.0320   10.1490   14.3890   O 0  0  0  0  0  0  0  0  0  0  0  0
   21.1890   10.1720   15.1500   C 0  0  0  0  0  0  0  0  0  0  0  0
  1  7  1  0  0  0  0
  1 21  1  0  0  0  0
  2  3  2  0  0  0  0
  2  4  1  0  0  0  0
  2 15  1  0  0  0  0
  3 10  1  0  0  0  0
  3 16  1  0  0  0  0
  4  5  1  0  0  0  0
  4 20  1  0  0  0  0
  5 19  1  0  0  0  0
  6 11  1  0  0  0  0
  6 12  2  0  0  0  0
  6 13  2  0  0  0  0
  6 14  1  0  0  0  0
  7 22  1  0  0  0  0
  8  9  1  0  0  0  0
  9 20  1  0  0  0  0
 10 14  1  0  0  0  0
 14 15  2  0  0  0  0
 16 17  2  0  0  0  0
 16 18  2  0  0  0  0
 16 19  1  0  0  0  0
 19 21  1  0  0  0  0
 22 23  1  0  0  0  0
M  END
>  <InstanceId>
4M2R_BZ1_A_302

>  <ChemCompId>
BZ1

>  <PdbId>
4M2R

>  <ChainId>
A

>  <ResidueNumber>
302

>  <InsertionCode>


>  <Model>
1

>  <AltIds>


>  <MissingHeavyAtoms>
0

>  <ObservedFormula>
C12 N3 O5 S3

>  <Name>
(+)-4-ETHYLAMINO-3,4-DIHYDRO-2-(METHOXY)PROPYL-2H-THIENO[3,2-E]-1,2-THIAZINE-6-SULFONAMIDE-1,1-DIOXIDE

>  <SystematicName>
(4R)-4-(ethylamino)-2-(3-methoxypropyl)-1,1-bis(oxidanylidene)-3,4-dihydrothieno[3,2-e][1,2]thiazine-6-sulfonamide

>  <Synonyms>
Brinzolamide

>  <Type>
NON-POLYMER

>  <Formula>
C12 H21 N3 O5 S3

>  <MolecularWeight>
383.507

>  <ModifiedDate>
2013-08-12

>  <Parent>


>  <OneLetterCode>


>  <SubcomponentList>


>  <AmbiguousFlag>
N

>  <InChI>
InChI=1S/C12H21N3O5S3/c1-3-14-10-8-15(5-4-6-20-2)23(18,19)12-9(10)7-11(21-12)22(13,16)17/h7,10,14H,3-6,8H2,1-2H3,(H2,13,16,17)/t10-/m0/s1

>  <InChIKey>
HCRKCZRJWPKOAR-JTQLQIEISA-N

>  <SMILES>
CCN[C@H]1CN(S(=O)(=O)c2c1cc(s2)S(=O)(=O)N)CCCOC

$$$$
