3B4P_3B4_A_500
  RCSB PDB08012018363D
Coordinates from PDB:3B4P:A:500 Model:1 without hydrogens
 16 17  0  0  0  0            999 V2000
   41.7840    0.0650   92.8670   C 0  0  0  0  0  0  0  0  0  0  0  0
   42.2500   -1.3750   92.7860   C 0  0  0  0  0  0  0  0  0  0  0  0
   41.1000   -2.2780   92.2790   C 0  0  0  0  0  0  0  0  0  0  0  0
   40.5000   -1.8310   91.0180   C 0  0  0  0  0  0  0  0  0  0  0  0
   40.2170   -0.3180   91.0040   C 0  0  0  0  0  0  0  0  0  0  0  0
   41.4200    0.5530   91.5720   C 0  0  0  0  0  0  0  0  0  0  0  0
   40.8630    1.9650   91.6760   N 0  0  0  0  0  0  0  0  0  0  0  0
   41.5550    2.9200   92.4130   C 0  0  0  0  0  0  0  0  0  0  0  0
   42.8640    3.1700   92.0240   C 0  0  0  0  0  0  0  0  0  0  0  0
   43.5890    4.1180   92.6800   C 0  0  0  0  0  0  0  0  0  0  0  0
   43.0420    4.8160   93.7290   C 0  0  0  0  0  0  0  0  0  0  0  0
   41.7200    4.6100   94.1170   C 0  0  0  0  0  0  0  0  0  0  0  0
   40.9560    3.6270   93.4680   C 0  0  0  0  0  0  0  0  0  0  0  0
   39.5210    3.3710   93.8690   C 0  0  0  0  0  0  0  0  0  0  0  0
   39.1530    3.8620   94.9270   O 0  0  0  0  0  0  0  0  0  0  0  0
   38.7870    2.7530   93.1230   O 0  0  0  0  0  0  0  0  0  0  0  0
  6  1  1  0  0  0  0
  2  1  1  0  0  0  0
  3  2  1  0  0  0  0
  4  3  1  0  0  0  0
  5  4  1  0  0  0  0
  5  6  1  0  0  0  0
  6  7  1  0  0  0  0
  7  8  1  0  0  0  0
  9  8  2  0  0  0  0
  8 13  1  0  0  0  0
  9 10  1  0  0  0  0
 10 11  2  0  0  0  0
 11 12  1  0  0  0  0
 13 12  2  0  0  0  0
 13 14  1  0  0  0  0
 16 14  2  0  0  0  0
 14 15  1  0  0  0  0
M  END
>  <InstanceId>
3B4P_3B4_A_500

>  <ChemCompId>
3B4

>  <PdbId>
3B4P

>  <ChainId>
A

>  <ResidueNumber>
500

>  <InsertionCode>


>  <Model>
1

>  <AltIds>


>  <MissingHeavyAtoms>
0

>  <ObservedFormula>
C13 N O2

>  <Name>
2-(cyclohexylamino)benzoic acid

>  <SystematicName>
2-(cyclohexylamino)benzoic acid

>  <Synonyms>


>  <Type>
NON-POLYMER

>  <Formula>
C13 H17 N O2

>  <MolecularWeight>
219.28

>  <ModifiedDate>
2011-06-04

>  <Parent>


>  <OneLetterCode>


>  <SubcomponentList>


>  <AmbiguousFlag>
N

>  <InChI>
InChI=1S/C13H17NO2/c15-13(16)11-8-4-5-9-12(11)14-10-6-2-1-3-7-10/h4-5,8-10,14H,1-3,6-7H2,(H,15,16)

>  <InChIKey>
JSXMFCCPQQJLCR-UHFFFAOYSA-N

>  <SMILES>
c1ccc(c(c1)C(=O)O)NC2CCCCC2

$$$$
