2XYD_3ES_A_1611
  RCSB PDB08012018193D
Coordinates from PDB:2XYD:A:1611 Model:1 without hydrogens
 51 55  0  0  0  0            999 V2000
   -3.1410  -18.7200  -23.1020   C 0  0  0  0  0  0  0  0  0  0  0  0
   -3.0410  -19.1490  -24.2590   O 0  0  0  0  0  0  0  0  0  0  0  0
   -3.9620  -19.3240  -22.2000   O 0  0  0  0  0  0  0  0  0  0  0  0
   -4.0870  -20.7390  -22.1060   C 0  0  0  0  0  0  0  0  0  0  0  0
   -4.7280  -21.1790  -20.9420   C 0  0  0  0  0  0  0  0  0  0  0  0
   -4.2380  -20.7740  -19.6950   C 0  0  0  0  0  0  0  0  0  0  0  0
   -4.8750  -21.1870  -18.5260   C 0  0  0  0  0  0  0  0  0  0  0  0
   -6.0060  -22.0010  -18.5980   C 0  0  0  0  0  0  0  0  0  0  0  0
   -6.5070  -22.3980  -19.8380   C 0  0  0  0  0  0  0  0  0  0  0  0
   -5.8700  -21.9860  -21.0110   C 0  0  0  0  0  0  0  0  0  0  0  0
    0.1470  -17.0600  -21.4720   O 0  0  0  0  0  0  0  0  0  0  0  0
    0.0520  -17.1250  -22.9570   P 0  0  0  0  0  0  0  0  0  0  0  0
    0.2800  -18.5920  -23.5140   O 0  0  0  0  0  0  0  0  0  0  0  0
   -1.6890  -16.7170  -23.4100   C 0  0  0  0  0  0  0  0  0  0  0  0
   -2.5440  -17.6100  -22.6370   N 0  0  0  0  0  0  0  0  0  0  0  0
   -2.0690  -15.2510  -23.0420   C 0  0  0  0  0  0  0  0  0  0  0  0
   -3.5740  -14.9090  -23.2840   C 0  0  0  0  0  0  0  0  0  0  0  0
   -4.0160  -14.4710  -24.5350   C 0  0  0  0  0  0  0  0  0  0  0  0
   -5.3650  -14.1650  -24.7730   C 0  0  0  0  0  0  0  0  0  0  0  0
   -6.3080  -14.2820  -23.7520   C 0  0  0  0  0  0  0  0  0  0  0  0
   -5.8730  -14.7250  -22.5010   C 0  0  0  0  0  0  0  0  0  0  0  0
   -4.5180  -15.0330  -22.2640   C 0  0  0  0  0  0  0  0  0  0  0  0
    3.2460  -16.9300  -22.9680   C 0  0  0  0  0  0  0  0  0  0  0  0
    4.7880  -16.8590  -23.0110   C 0  0  0  0  0  0  0  0  0  0  0  0
    5.6460  -15.8430  -23.1300   C 0  0  0  0  0  0  0  0  0  0  0  0
    5.5150  -18.0000  -22.8770   O 0  0  0  0  0  0  0  0  0  0  0  0
    6.8740  -17.6490  -22.9220   N 0  0  0  0  0  0  0  0  0  0  0  0
    6.9060  -16.3290  -23.0860   C 0  0  0  0  0  0  0  0  0  0  0  0
    8.0940  -15.6140  -23.1530   C 0  0  0  0  0  0  0  0  0  0  0  0
    8.0940  -14.2300  -23.3470   C 0  0  0  0  0  0  0  0  0  0  0  0
    9.3140  -13.5440  -23.3900   C 0  0  0  0  0  0  0  0  0  0  0  0
   10.5160  -14.2360  -23.2210   C 0  0  0  0  0  0  0  0  0  0  0  0
   10.5230  -15.6190  -23.0190   C 0  0  0  0  0  0  0  0  0  0  0  0
    9.3080  -16.3090  -22.9780   C 0  0  0  0  0  0  0  0  0  0  0  0
    1.0820  -15.9920  -23.9430   C 0  0  0  0  0  0  0  0  0  0  0  0
    2.4780  -15.6550  -23.3490   C 0  0  0  0  0  0  0  0  0  0  0  0
    2.3310  -14.6410  -22.1900   C 0  0  0  0  0  0  0  0  0  0  0  0
    1.3830  -13.8510  -22.1830   O 0  0  0  0  0  0  0  0  0  0  0  0
    3.3170  -14.6010  -21.2770   N 0  0  0  0  0  0  0  0  0  0  0  0
    3.3060  -13.5740  -20.2050   C 0  0  0  0  0  0  0  0  0  0  0  0
    3.8150  -12.2630  -20.8240   C 0  0  0  0  0  0  0  0  0  0  0  0
    3.8170  -11.2390  -20.1070   O 0  0  0  0  0  0  0  0  0  0  0  0
    4.1300  -13.9500  -18.9570   C 0  0  0  0  0  0  0  0  0  0  0  0
    5.2840  -14.9350  -19.1830   C 0  0  0  0  0  0  0  0  0  0  0  0
    6.5890  -14.4800  -19.3850   C 0  0  0  0  0  0  0  0  0  0  0  0
    5.0270  -16.3040  -19.1580   C 0  0  0  0  0  0  0  0  0  0  0  0
    7.6320  -15.3950  -19.5740   C 0  0  0  0  0  0  0  0  0  0  0  0
    6.0610  -17.2190  -19.3480   C 0  0  0  0  0  0  0  0  0  0  0  0
    7.3640  -16.7680  -19.5560   C 0  0  0  0  0  0  0  0  0  0  0  0
    8.3610  -17.6890  -19.7430   O 0  0  0  0  0  0  0  0  0  0  0  0
    4.1950  -12.3140  -22.0150   O 0  0  0  0  0  0  0  0  0  0  0  0
  6  7  1  0  0  0  0
  6  5  2  0  0  0  0
  7  8  2  0  0  0  0
  8  9  1  0  0  0  0
  9 10  2  0  0  0  0
 10  5  1  0  0  0  0
  5  4  1  0  0  0  0
  4  3  1  0  0  0  0
  3  1  1  0  0  0  0
  1  2  2  0  0  0  0
  1 15  1  0  0  0  0
 15 14  1  0  0  0  0
 14 16  1  0  0  0  0
 14 12  1  0  0  0  0
 16 17  1  0  0  0  0
 17 18  1  0  0  0  0
 17 22  2  0  0  0  0
 18 19  2  0  0  0  0
 19 20  1  0  0  0  0
 20 21  2  0  0  0  0
 21 22  1  0  0  0  0
 12 13  1  0  0  0  0
 12 11  2  0  0  0  0
 12 35  1  0  0  0  0
 35 36  1  0  0  0  0
 36 37  1  0  0  0  0
 36 23  1  0  0  0  0
 37 38  2  0  0  0  0
 37 39  1  0  0  0  0
 39 40  1  0  0  0  0
 40 41  1  0  0  0  0
 40 43  1  0  0  0  0
 41 51  1  0  0  0  0
 41 42  2  0  0  0  0
 43 44  1  0  0  0  0
 44 45  1  0  0  0  0
 44 46  2  0  0  0  0
 45 47  2  0  0  0  0
 47 49  1  0  0  0  0
 49 50  1  0  0  0  0
 49 48  2  0  0  0  0
 48 46  1  0  0  0  0
 23 24  1  0  0  0  0
 24 25  2  0  0  0  0
 24 26  1  0  0  0  0
 25 28  1  0  0  0  0
 26 27  1  0  0  0  0
 27 28  2  0  0  0  0
 28 29  1  0  0  0  0
 29 30  1  0  0  0  0
 29 34  2  0  0  0  0
 30 31  2  0  0  0  0
 31 32  1  0  0  0  0
 32 33  2  0  0  0  0
 33 34  1  0  0  0  0
M  END
>  <InstanceId>
2XYD_3ES_A_1611

>  <ChemCompId>
3ES

>  <PdbId>
2XYD

>  <ChainId>
A

>  <ResidueNumber>
1611

>  <InsertionCode>


>  <Model>
1

>  <AltIds>


>  <MissingHeavyAtoms>
0

>  <ObservedFormula>
C38 N3 O9 P

>  <Name>
[(2S)-2-({3-[HYDROXYL(2-PHENYL-(1R)-1-{[(BENZYLOXY)[(2S)-2-({3-[HYDROXYL(2-PHENYL-(1R)-1-CARBONYL]-AMINO}ETHYL)PHOSPHINYL]-2-[(3-PHENYLISOXAZOL-5-YL)METHYL]-1-OXO-PROPYL}AMINO)-3-(4-HYDROXY-PHENYL)

>  <SystematicName>
(2S)-3-(4-hydroxyphenyl)-2-[[(2R)-2-[[hydroxy-[(1R)-2-phenyl-1-phenylmethoxycarbonylamino-ethyl]phosphoryl]methyl]-3-(3-phenyl-1,2-oxazol-5-yl)propanoyl]amino]propanoic acid

>  <Synonyms>


>  <Type>
non-polymer

>  <Formula>
C38 H38 N3 O9 P

>  <MolecularWeight>
711.697

>  <ModifiedDate>
2012-04-02

>  <Parent>


>  <OneLetterCode>


>  <SubcomponentList>
PHQ PPH 1JQ TYR

>  <AmbiguousFlag>
N

>  <InChI>
InChI=1S/C38H38N3O9P/c42-31-18-16-27(17-19-31)20-34(37(44)45)39-36(43)30(22-32-23-33(41-50-32)29-14-8-3-9-15-29)25-51(47,48)35(21-26-10-4-1-5-11-26)40-38(46)49-24-28-12-6-2-7-13-28/h1-19,23,30,34-35,42H,20-22,24-25H2,(H,39,43)(H,40,46)(H,44,45)(H,47,48)/t30-,34-,35+/m0/s1

>  <InChIKey>
ZPFSKFCSVXPMBD-PFESQZPFSA-N

>  <SMILES>
c1ccc(cc1)C[C@H](NC(=O)OCc2ccccc2)[P@](=O)(C[C@H](Cc3cc(no3)c4ccccc4)C(=O)N[C@@H](Cc5ccc(cc5)O)C(=O)O)O

$$$$
