3EKX_1UN_B_201
  RCSB PDB08012018563D
Coordinates from PDB:3EKX:B:201 Model:1 without hydrogens
 40 43  0  0  0  0            999 V2000
   17.6520   27.4490   12.7990   C 0  0  0  0  0  0  0  0  0  0  0  0
   18.3740   26.8110   11.6210   C 0  0  0  0  0  0  0  0  0  0  0  0
   17.5420   26.7500   10.3450   C 0  0  0  0  0  0  0  0  0  0  0  0
   16.8880   28.0990   10.0830   C 0  0  0  0  0  0  0  0  0  0  0  0
   16.1660   28.5860   11.3310   C 0  0  0  0  0  0  0  0  0  0  0  0
   17.1240   28.8360   12.4940   C 0  0  0  0  0  0  0  0  0  0  0  0
   19.7000   28.3220   13.7270   N 0  0  0  0  0  0  0  0  0  0  0  0
   20.4650   27.6440   12.6890   C 0  0  0  0  0  0  0  0  0  0  0  0
   19.6630   27.5800   11.3870   C 0  0  0  0  0  0  0  0  0  0  0  0
   18.5190   27.5190   14.0440   C 0  0  0  0  0  0  0  0  0  0  0  0
   21.7100   28.3770   12.3210   C 0  0  0  0  0  0  0  0  0  0  0  0
   22.7420   27.5550   12.1370   N 0  0  0  0  0  0  0  0  0  0  0  0
   24.0630   27.9180   11.6750   C 0  0  0  0  0  0  0  0  0  0  0  0
   24.6920   28.7540   12.7890   C 0  0  0  0  0  0  0  0  0  0  0  0
   23.9610   28.6780   10.3500   C 0  0  0  0  0  0  0  0  0  0  0  0
   24.8630   26.6300   11.4480   C 0  0  0  0  0  0  0  0  0  0  0  0
   21.6810   29.5930   12.1850   O 0  0  0  0  0  0  0  0  0  0  0  0
   20.4270   28.3490   14.9830   C 0  0  0  0  0  0  0  0  0  0  0  0
   19.9360   29.5350   15.7930   C 0  0  0  0  0  0  0  0  0  0  0  0
   20.5990   30.8460   15.3910   C 0  0  0  0  0  0  0  0  0  0  0  0
   20.2180   29.1920   17.1330   O 0  0  0  0  0  0  0  0  0  0  0  0
   19.8830   31.9160   16.0470   N 0  0  0  0  0  0  0  0  0  0  0  0
   22.0740   31.0060   15.7490   C 0  0  0  0  0  0  0  0  0  0  0  0
   18.8960   32.5950   15.4700   C 0  0  0  0  0  0  0  0  0  0  0  0
   18.5620   32.4850   14.3050   O 0  0  0  0  0  0  0  0  0  0  0  0
   18.1700   33.5500   16.3600   C 0  0  0  0  0  0  0  0  0  0  0  0
   18.9000   34.4270   17.1640   C 0  0  0  0  0  0  0  0  0  0  0  0
   18.2810   35.3300   18.0260   C 0  0  0  0  0  0  0  0  0  0  0  0
   16.8960   35.3930   18.1000   C 0  0  0  0  0  0  0  0  0  0  0  0
   16.1010   34.5470   17.3310   C 0  0  0  0  0  0  0  0  0  0  0  0
   16.6960   33.5600   16.4060   C 0  0  0  0  0  0  0  0  0  0  0  0
   14.7860   34.5830   17.4030   O 0  0  0  0  0  0  0  0  0  0  0  0
   15.7930   32.6670   15.5910   C 0  0  0  0  0  0  0  0  0  0  0  0
   22.7670   32.3280   14.8010   S 0  0  0  0  0  0  0  0  0  0  0  0
   22.6520   33.7870   15.6490   C 0  0  0  0  0  0  0  0  0  0  0  0
   22.4720   34.9430   14.9010   C 0  0  0  0  0  0  0  0  0  0  0  0
   22.3600   36.1670   15.5410   C 0  0  0  0  0  0  0  0  0  0  0  0
   22.4490   36.2380   16.9250   C 0  0  0  0  0  0  0  0  0  0  0  0
   22.6340   35.0800   17.6700   C 0  0  0  0  0  0  0  0  0  0  0  0
   22.7350   33.8470   17.0370   C 0  0  0  0  0  0  0  0  0  0  0  0
  1  2  1  0  0  0  0
  1  6  1  0  0  0  0
  1 10  1  0  0  0  0
  2  3  1  0  0  0  0
  2  9  1  0  0  0  0
  3  4  1  0  0  0  0
  4  5  1  0  0  0  0
  5  6  1  0  0  0  0
  7  8  1  0  0  0  0
  7 10  1  0  0  0  0
  7 18  1  0  0  0  0
  8  9  1  0  0  0  0
  8 11  1  0  0  0  0
 11 12  1  0  0  0  0
 11 17  2  0  0  0  0
 12 13  1  0  0  0  0
 13 14  1  0  0  0  0
 13 15  1  0  0  0  0
 13 16  1  0  0  0  0
 18 19  1  0  0  0  0
 19 20  1  0  0  0  0
 19 21  1  0  0  0  0
 20 22  1  0  0  0  0
 20 23  1  0  0  0  0
 22 24  1  0  0  0  0
 23 34  1  0  0  0  0
 24 25  2  0  0  0  0
 24 26  1  0  0  0  0
 26 27  2  0  0  0  0
 26 31  1  0  0  0  0
 27 28  1  0  0  0  0
 28 29  2  0  0  0  0
 29 30  1  0  0  0  0
 30 31  2  0  0  0  0
 30 32  1  0  0  0  0
 31 33  1  0  0  0  0
 34 35  1  0  0  0  0
 35 36  2  0  0  0  0
 35 40  1  0  0  0  0
 36 37  1  0  0  0  0
 37 38  2  0  0  0  0
 38 39  1  0  0  0  0
 39 40  2  0  0  0  0
M  END
>  <InstanceId>
3EKX_1UN_B_201

>  <ChemCompId>
1UN

>  <PdbId>
3EKX

>  <ChainId>
B

>  <ResidueNumber>
201

>  <InsertionCode>


>  <Model>
1

>  <AltIds>


>  <MissingHeavyAtoms>
0

>  <ObservedFormula>
C32 N3 O4 S

>  <Name>
2-[2-HYDROXY-3-(3-HYDROXY-2-METHYL-BENZOYLAMINO)-4-PHENYL SULFANYL-BUTYL]-DECAHYDRO-ISOQUINOLINE-3-CARBOXYLIC ACID TERT-BUTYLAMIDE

>  <SystematicName>
(2S,3S,4aS,8aS)-N-tert-butyl-2-[(2R,3R)-2-hydroxy-3-[(3-hydroxy-2-methyl-phenyl)carbonylamino]-4-phenylsulfanyl-butyl]-3,4,4a,5,6,7,8,8a-octahydro-1H-isoquinoline-3-carboxamide

>  <Synonyms>
NELFINAVIR MESYLATE AG1343

>  <Type>
NON-POLYMER

>  <Formula>
C32 H45 N3 O4 S

>  <MolecularWeight>
567.782

>  <ModifiedDate>
2011-06-04

>  <Parent>


>  <OneLetterCode>


>  <SubcomponentList>


>  <AmbiguousFlag>
N

>  <InChI>
InChI=1S/C32H45N3O4S/c1-21-25(15-10-16-28(21)36)30(38)33-26(20-40-24-13-6-5-7-14-24)29(37)19-35-18-23-12-9-8-11-22(23)17-27(35)31(39)34-32(2,3)4/h5-7,10,13-16,22-23,26-27,29,36-37H,8-9,11-12,17-20H2,1-4H3,(H,33,38)(H,34,39)/t22-,23+,26-,27-,29+/m0/s1

>  <InChIKey>
QAGYKUNXZHXKMR-HKWSIXNMSA-N

>  <SMILES>
Cc1c(cccc1O)C(=O)N[C@@H](CSc2ccccc2)[C@@H](C[N@@]3C[C@H]4CCCC[C@H]4C[C@H]3C(=O)NC(C)(C)C)O

$$$$
