1M2X_MCO_A_811
  RCSB PDB08012015253D
Coordinates from PDB:1M2X:A:811 Model:1 without hydrogens
 14 14  0  0  0  0            999 V2000
  -29.4130   35.1480    7.0740   O 0  0  0  0  0  0  0  0  0  0  0  0
  -28.2570   35.5820    7.2860   C 0  0  0  0  0  0  0  0  0  0  0  0
  -27.2680   35.4070    6.5480   O 0  0  0  0  0  0  0  0  0  0  0  0
  -28.0410   36.4090    8.5740   C 0  0  0  0  0  0  0  0  0  0  0  0
  -28.7630   35.7520    9.7520   C 0  0  0  0  0  0  0  0  0  0  0  0
  -27.7810   34.6970   10.2750   C 0  0  0  0  0  0  0  0  0  0  0  0
  -26.3940   35.3130   10.0650   C 0  0  0  0  0  0  0  0  0  0  0  0
  -26.6250   36.3060    8.9900   N 0  0  0  0  0  0  0  0  0  0  0  0
  -25.6540   37.1220    8.5260   C 0  0  0  0  0  0  0  0  0  0  0  0
  -25.9280   37.9910    7.6970   O 0  0  0  0  0  0  0  0  0  0  0  0
  -24.2130   36.9500    9.0220   C 0  0  0  0  0  0  0  0  0  0  0  0
  -23.9890   37.8620   10.2340   C 0  0  0  0  0  0  0  0  0  0  0  0
  -23.2280   37.2870    7.9000   C 0  0  0  0  0  0  0  0  0  0  0  0
  -21.5140   36.8160    8.3230   S 0  0  0  0  0  0  0  0  0  0  0  0
  1  2  2  0  0  0  0
  2  3  1  0  0  0  0
  2  4  1  0  0  0  0
  4  5  1  0  0  0  0
  4  8  1  0  0  0  0
  5  6  1  0  0  0  0
  6  7  1  0  0  0  0
  7  8  1  0  0  0  0
  8  9  1  0  0  0  0
  9 10  2  0  0  0  0
  9 11  1  0  0  0  0
 11 12  1  0  0  0  0
 11 13  1  0  0  0  0
 13 14  1  0  0  0  0
M  END
>  <InstanceId>
1M2X_MCO_A_811

>  <ChemCompId>
MCO

>  <PdbId>
1M2X

>  <ChainId>
A

>  <ResidueNumber>
811

>  <InsertionCode>


>  <Model>
1

>  <AltIds>


>  <MissingHeavyAtoms>
0

>  <ObservedFormula>
C9 N O3 S

>  <Name>
1-(3-MERCAPTO-2-METHYL-PROPIONYL)-PYRROLIDINE-2-CARBOXYLIC ACID

>  <SystematicName>
(2R)-1-[(2S)-2-methyl-3-sulfanyl-propanoyl]pyrrolidine-2-carboxylic acid

>  <Synonyms>


>  <Type>
NON-POLYMER

>  <Formula>
C9 H15 N O3 S

>  <MolecularWeight>
217.285

>  <ModifiedDate>
2012-01-05

>  <Parent>


>  <OneLetterCode>


>  <SubcomponentList>


>  <AmbiguousFlag>
N

>  <InChI>
InChI=1S/C9H15NO3S/c1-6(5-14)8(11)10-4-2-3-7(10)9(12)13/h6-7,14H,2-5H2,1H3,(H,12,13)/t6-,7-/m1/s1

>  <InChIKey>
FAKRSMQSSFJEIM-RNFRBKRXSA-N

>  <SMILES>
C[C@H](CS)C(=O)N1CCC[C@@H]1C(=O)O

$$$$
