6GLB_F48_A_1201
  RCSB PDB08022004493D
Coordinates from PDB:6GLB:A:1201 Model:1 without hydrogens
 27 31  0  0  0  0            999 V2000
   41.3720   52.0970    4.8560   C 0  0  0  0  0  0  0  0  0  0  0  0
   37.6240   53.8440    5.4810   C 0  0  0  0  0  0  0  0  0  0  0  0
   38.0360   54.5790    6.5440   C 0  0  0  0  0  0  0  0  0  0  0  0
   39.3670   54.3510    6.7910   N 0  0  0  0  0  0  0  0  0  0  0  0
   39.3160   50.5920    2.4540   C 0  0  0  0  0  0  0  0  0  0  0  0
   39.0130   49.6680    1.3850   C 0  0  0  0  0  0  0  0  0  0  0  0
   38.3980   51.4200    3.0560   N 0  0  0  0  0  0  0  0  0  0  0  0
   39.6920   49.0770    0.3770   C 0  0  0  0  0  0  0  0  0  0  0  0
   38.7490   48.3040   -0.3580   C 0  0  0  0  0  0  0  0  0  0  0  0
   37.5510   48.4580    0.2450   C 0  0  0  0  0  0  0  0  0  0  0  0
   36.1650   47.9260    0.0800   C 0  0  0  0  0  0  0  0  0  0  0  0
   40.5240   50.6970    2.9690   N 0  0  0  0  0  0  0  0  0  0  0  0
   35.3530   48.5630   -1.0330   C 0  0  0  0  0  0  0  0  0  0  0  0
   33.9980   48.9620   -0.5850   C 0  0  0  0  0  0  0  0  0  0  0  0
   36.9660   51.5550    2.6770   C 0  0  0  0  0  0  0  0  0  0  0  0
   32.9330   49.2810   -0.2910   N 0  0  0  0  0  0  0  0  0  0  0  0
   37.6880   49.2930    1.3180   O 0  0  0  0  0  0  0  0  0  0  0  0
   40.3940   51.6410    3.9800   C 0  0  0  0  0  0  0  0  0  0  0  0
   41.1250   52.9860    5.8260   N 0  0  0  0  0  0  0  0  0  0  0  0
   39.0870   52.1240    4.0620   C 0  0  0  0  0  0  0  0  0  0  0  0
   38.7580   53.0950    5.0370   C 0  0  0  0  0  0  0  0  0  0  0  0
   39.8630   53.4520    5.8940   C 0  0  0  0  0  0  0  0  0  0  0  0
   36.6400   52.8880    2.0270   C 0  0  0  0  0  0  0  0  0  0  0  0
   35.2020   52.8820    1.5230   C 0  0  0  0  0  0  0  0  0  0  0  0
   34.2370   52.5390    2.6410   C 0  0  0  0  0  0  0  0  0  0  0  0
   34.5680   51.1790    3.2590   C 0  0  0  0  0  0  0  0  0  0  0  0
   35.9980   51.1410    3.7800   C 0  0  0  0  0  0  0  0  0  0  0  0
 13 14  1  0  0  0  0
 13 11  1  0  0  0  0
 14 16  3  0  0  0  0
  9 10  2  0  0  0  0
  9  8  1  0  0  0  0
 11 10  1  0  0  0  0
 10 17  1  0  0  0  0
  8  6  2  0  0  0  0
 17  6  1  0  0  0  0
  6  5  1  0  0  0  0
 24 23  1  0  0  0  0
 24 25  1  0  0  0  0
 23 15  1  0  0  0  0
  5 12  2  0  0  0  0
  5  7  1  0  0  0  0
 25 26  1  0  0  0  0
 15  7  1  0  0  0  0
 15 27  1  0  0  0  0
 12 18  1  0  0  0  0
  7 20  1  0  0  0  0
 26 27  1  0  0  0  0
 18 20  2  0  0  0  0
 18  1  1  0  0  0  0
 20 21  1  0  0  0  0
  1 19  2  0  0  0  0
 21  2  1  0  0  0  0
 21 22  2  0  0  0  0
  2  3  2  0  0  0  0
 19 22  1  0  0  0  0
 22  4  1  0  0  0  0
  3  4  1  0  0  0  0
M  END
>  <InstanceId>
6GLB_F48_A_1201

>  <ChemCompId>
F48

>  <PdbId>
6GLB

>  <ChainId>
A

>  <ResidueNumber>
1201

>  <InsertionCode>


>  <Model>
1

>  <AltIds>


>  <MissingHeavyAtoms>
0

>  <ObservedFormula>
C21 N5 O

>  <Name>
3-[5-(3-cyclohexyl-3,5,8,10-tetrazatricyclo[7.3.0.0^{2,6}]dodeca-1(9),2(6),4,7,11-pentaen-4-yl)furan-2-yl]propanenitrile

>  <SystematicName>
3-[5-(3-cyclohexyl-3,5,8,10-tetrazatricyclo[7.3.0.0^{2,6}]dodeca-1(9),2(6),4,7,11-pentaen-4-yl)furan-2-yl]propanenitrile

>  <Synonyms>


>  <Type>
NON-POLYMER

>  <Formula>
C21 H21 N5 O

>  <MolecularWeight>
359.424

>  <ModifiedDate>
2018-06-22

>  <Parent>


>  <OneLetterCode>


>  <SubcomponentList>


>  <AmbiguousFlag>
N

>  <InChI>
InChI=1S/C21H21N5O/c22-11-4-7-15-8-9-18(27-15)21-25-17-13-24-20-16(10-12-23-20)19(17)26(21)14-5-2-1-3-6-14/h8-10,12-14H,1-7H2,(H,23,24)

>  <InChIKey>
PLKGAHIHTTYWEV-UHFFFAOYSA-N

>  <SMILES>
c1cc(oc1CCC#N)c2nc3cnc4c(c3n2C5CCCCC5)cc[nH]4

$$$$
