1B6L_PI4_A_201
  RCSB PDB08012014373D
Coordinates from PDB:1B6L:A:201 Model:1 without hydrogens
 39 41  0  0  0  0            999 V2000
    6.1160    2.8190    8.8070   C 0  0  0  0  0  0  0  0  0  0  0  0
    4.2430    3.2310   10.4450   C 0  0  0  0  0  0  0  0  0  0  0  0
    4.1710    4.1370   11.2750   O 0  0  0  0  0  0  0  0  0  0  0  0
    4.7890    3.4970    9.0560   C 0  0  0  0  0  0  0  0  0  0  0  0
    3.8770    1.9790   10.7050   N 0  0  0  0  0  0  0  0  0  0  0  0
    3.3110    1.5880   12.0060   C 0  0  0  0  0  0  0  0  0  0  0  0
    3.9670    0.3640   12.6350   C 0  0  0  0  0  0  0  0  0  0  0  0
    3.9310   -0.7320   12.0750   O 0  0  0  0  0  0  0  0  0  0  0  0
    1.8140    1.3240   11.8550   C 0  0  0  0  0  0  0  0  0  0  0  0
    1.0770    2.5020   11.2770   C 0  0  0  0  0  0  0  0  0  0  0  0
    0.5120    3.3110   12.0060   O 0  0  0  0  0  0  0  0  0  0  0  0
    1.0980    2.6210    9.9530   N 0  0  0  0  0  0  0  0  0  0  0  0
    4.5560    0.5590   13.8100   N 0  0  0  0  0  0  0  0  0  0  0  0
    5.2190   -0.5330   14.5340   C 0  0  0  0  0  0  0  0  0  0  0  0
    6.7350   -0.3200   14.5350   C 0  0  0  0  0  0  0  0  0  0  0  0
    7.2100    0.4410   13.3290   C 0  0  0  0  0  0  0  0  0  0  0  0
    7.3330    1.8230   13.3770   C 0  0  0  0  0  0  0  0  0  0  0  0
    7.6760    2.5460   12.2630   C 0  0  0  0  0  0  0  0  0  0  0  0
    7.4640   -0.2060   12.1200   C 0  0  0  0  0  0  0  0  0  0  0  0
    7.8110    0.5160   10.9900   C 0  0  0  0  0  0  0  0  0  0  0  0
    7.9150    1.8950   11.0740   C 0  0  0  0  0  0  0  0  0  0  0  0
    8.2220    2.6510    9.9710   O 0  0  0  0  0  0  0  0  0  0  0  0
    7.2420    3.5620    9.5120   C 0  0  0  0  0  0  0  0  0  0  0  0
    4.6850   -0.6120   15.9760   C 0  0  0  0  0  0  0  0  0  0  0  0
    5.0950    0.5410   16.7170   O 0  0  0  0  0  0  0  0  0  0  0  0
    5.1720   -1.8710   16.6730   C 0  0  0  0  0  0  0  0  0  0  0  0
    4.4230   -3.0340   16.1410   N 0  0  0  0  0  0  0  0  0  0  0  0
    5.1850   -4.2660   16.4870   C 0  0  0  0  0  0  0  0  0  0  0  0
    4.4110   -5.5030   16.0160   C 0  0  0  0  0  0  0  0  0  0  0  0
    2.9920   -5.5790   16.5630   C 0  0  0  0  0  0  0  0  0  0  0  0
    2.2510   -4.2800   16.2880   C 0  0  0  0  0  0  0  0  0  0  0  0
    3.0580   -3.0800   16.7610   C 0  0  0  0  0  0  0  0  0  0  0  0
    6.5680   -4.2310   15.8390   C 0  0  0  0  0  0  0  0  0  0  0  0
    6.7200   -3.7110   14.7320   O 0  0  0  0  0  0  0  0  0  0  0  0
    8.9620   -4.8510   16.0860   C 0  0  0  0  0  0  0  0  0  0  0  0
    9.4410   -3.4850   15.6080   C 0  0  0  0  0  0  0  0  0  0  0  0
    9.8500   -5.3020   17.2420   C 0  0  0  0  0  0  0  0  0  0  0  0
    9.0930   -5.8660   14.9560   C 0  0  0  0  0  0  0  0  0  0  0  0
    7.5630   -4.7800   16.5410   N 0  0  0  0  0  0  0  0  0  0  0  0
  1  4  1  0  0  0  0
  1 23  1  0  0  0  0
  2  3  2  0  0  0  0
  2  4  1  0  0  0  0
  2  5  1  0  0  0  0
  5  6  1  0  0  0  0
  6  7  1  0  0  0  0
  6  9  1  0  0  0  0
  7  8  2  0  0  0  0
  7 13  1  0  0  0  0
  9 10  1  0  0  0  0
 10 11  2  0  0  0  0
 10 12  1  0  0  0  0
 13 14  1  0  0  0  0
 14 15  1  0  0  0  0
 14 24  1  0  0  0  0
 15 16  1  0  0  0  0
 16 17  1  0  0  0  0
 16 19  2  0  0  0  0
 17 18  2  0  0  0  0
 18 21  1  0  0  0  0
 19 20  1  0  0  0  0
 20 21  2  0  0  0  0
 21 22  1  0  0  0  0
 22 23  1  0  0  0  0
 24 25  1  0  0  0  0
 24 26  1  0  0  0  0
 26 27  1  0  0  0  0
 27 28  1  0  0  0  0
 27 32  1  0  0  0  0
 28 29  1  0  0  0  0
 28 33  1  0  0  0  0
 29 30  1  0  0  0  0
 30 31  1  0  0  0  0
 31 32  1  0  0  0  0
 33 34  2  0  0  0  0
 33 39  1  0  0  0  0
 35 36  1  0  0  0  0
 35 37  1  0  0  0  0
 35 38  1  0  0  0  0
 35 39  1  0  0  0  0
M  END
>  <InstanceId>
1B6L_PI4_A_201

>  <ChemCompId>
PI4

>  <PdbId>
1B6L

>  <ChainId>
A

>  <ResidueNumber>
201

>  <InsertionCode>


>  <Model>
1

>  <AltIds>


>  <MissingHeavyAtoms>
0

>  <ObservedFormula>
C28 N5 O6

>  <Name>
1-[2-(8-CARBAMOYLMETHYL-6,9-DIOXO-2-OXA-7,10-DIAZA-BICYCLO[11.2.2]HEPTADECA- 1(16),13(17),14-TRIEN-11-YL)-2-HYDROXY-ETHYL]-PIPERIDINE-2-CARBOXYLIC ACID TERT-BUTYLAMIDE

>  <SystematicName>
(1S,2S)-1-[(2R)-2-[(3S,6S)-6-(2-amino-2-oxo-ethyl)-5,8-dioxo-12-oxa-4,7-diazabicyclo[11.2.2]heptadeca-1(15),13,16-trien-3-yl]-2-hydroxy-ethyl]-N-tert-butyl-piperidine-2-carboxamide

>  <Synonyms>
MACROCYCLIC PEPTIDOMIMETIC INHIBITOR 4

>  <Type>
NON-POLYMER

>  <Formula>
C28 H43 N5 O6

>  <MolecularWeight>
545.671

>  <ModifiedDate>
2011-06-04

>  <Parent>


>  <OneLetterCode>


>  <SubcomponentList>


>  <AmbiguousFlag>
N

>  <InChI>
InChI=1S/C28H43N5O6/c1-28(2,3)32-27(38)22-7-4-5-13-33(22)17-23(34)20-15-18-9-11-19(12-10-18)39-14-6-8-25(36)30-21(16-24(29)35)26(37)31-20/h9-12,20-23,34H,4-8,13-17H2,1-3H3,(H2,29,35)(H,30,36)(H,31,37)(H,32,38)/t20-,21-,22-,23+/m0/s1

>  <InChIKey>
GHEDXAXQQMZPLE-CWBXHPNXSA-N

>  <SMILES>
CC(C)(C)NC(=O)[C@@H]1CCCC[N@]1C[C@H]([C@@H]2Cc3ccc(cc3)OCCCC(=O)N[C@H](C(=O)N2)CC(=O)N)O

$$$$
