3BVA_2NC_B_200
  RCSB PDB08012018403D
Coordinates from PDB:3BVA:B:200 Model:1 without hydrogens
 54 53  0  0  0  0            999 V2000
   23.6500   24.5060   19.9100   C 0  0  0  0  0  0  0  0  0  0  0  0
   23.2500   25.0390   20.9460   O 0  0  0  0  0  0  0  0  0  0  0  0
   24.2670   23.1760   19.7500   C 0  0  0  0  0  0  0  0  0  0  0  0
   23.5130   25.2630   18.7010   N 0  0  0  0  0  0  0  0  0  0  0  0
   22.9570   26.5810   18.6720   C 0  0  0  0  0  0  0  0  0  0  0  0
   21.5600   26.6530   18.0060   C 0  0  0  0  0  0  0  0  0  0  0  0
   20.9080   27.6950   18.1040   O 0  0  0  0  0  0  0  0  0  0  0  0
   23.8680   27.6060   17.9800   C 0  0  0  0  0  0  0  0  0  0  0  0
   24.0350   27.1310   16.6510   O 0  0  0  0  0  0  0  0  0  0  0  0
   25.2550   27.6750   18.6780   C 0  0  0  0  0  0  0  0  0  0  0  0
   21.1080   25.5940   17.3570   N 0  0  0  0  0  0  0  0  0  0  0  0
   19.8230   25.5800   16.6520   C 0  0  0  0  0  0  0  0  0  0  0  0
   18.9780   24.4680   17.1950   C 0  0  0  0  0  0  0  0  0  0  0  0
   19.0370   23.3320   16.8010   O 0  0  0  0  0  0  0  0  0  0  0  0
   20.0090   25.4230   15.1210   C 0  0  0  0  0  0  0  0  0  0  0  0
   21.0470   26.3660   14.5320   C 0  0  0  0  0  0  0  0  0  0  0  0
   18.6810   25.5440   14.4350   C 0  0  0  0  0  0  0  0  0  0  0  0
   20.7000   27.8180   14.6180   C 0  0  0  0  0  0  0  0  0  0  0  0
   18.1910   24.8030   18.2780   N 0  0  0  0  0  0  0  0  0  0  0  0
   17.4300   23.8350   19.0620   C 0  0  0  0  0  0  0  0  0  0  0  0
   15.9730   23.8170   18.7570   C 0  0  0  0  0  0  0  0  0  0  0  0
   17.7360   24.0470   20.5580   C 0  0  0  0  0  0  0  0  0  0  0  0
   19.1910   24.0780   20.9400   C 0  0  0  0  0  0  0  0  0  0  0  0
   19.9770   22.8930   20.5270   C 0  0  0  0  0  0  0  0  0  0  0  0
   19.4160   21.5720   21.0660   C 0  0  0  0  0  0  0  0  0  0  0  0
   15.6780   23.6430   17.3630   N 0  0  0  0  0  0  0  0  0  0  0  0
   14.4680   22.9350   17.0580   C 0  0  0  0  0  0  0  0  0  0  0  0
   14.4680   21.5300   17.6480   C 0  0  0  0  0  0  0  0  0  0  0  0
   15.4760   20.8120   17.6670   O 0  0  0  0  0  0  0  0  0  0  0  0
   14.1020   22.9110   15.5610   C 0  0  0  0  0  0  0  0  0  0  0  0
   15.0530   22.1010   14.7650   C 0  0  0  0  0  0  0  0  0  0  0  0
   14.5350   21.5870   13.4440   C 0  0  0  0  0  0  0  0  0  0  0  0
   14.0640   20.1500   13.6340   C 0  0  0  0  0  0  0  0  0  0  0  0
   13.2950   21.0540   18.0540   N 0  0  0  0  0  0  0  0  0  0  0  0
   13.1250   19.6530   18.4510   C 0  0  0  0  0  0  0  0  0  0  0  0
   11.7040   19.2390   18.0730   C 0  0  0  0  0  0  0  0  0  0  0  0
   10.7210   19.9210   18.3560   O 0  0  0  0  0  0  0  0  0  0  0  0
   13.4570   19.4510   19.9070   C 0  0  0  0  0  0  0  0  0  0  0  0
   13.2250   18.0700   20.4260   C 0  0  0  0  0  0  0  0  0  0  0  0
   11.8320   17.7650   20.8780   C 0  0  0  0  0  0  0  0  0  0  0  0
   11.1010   18.6710   21.2590   O 0  0  0  0  0  0  0  0  0  0  0  0
   11.3790   16.5420   20.8190   N 0  0  0  0  0  0  0  0  0  0  0  0
   11.6200   18.0400   17.5350   N 0  0  0  0  0  0  0  0  0  0  0  0
   10.3540   17.4770   17.1340   C 0  0  0  0  0  0  0  0  0  0  0  0
   10.2450   16.0810   17.7450   C 0  0  0  0  0  0  0  0  0  0  0  0
   11.1950   15.3030   17.7680   O 0  0  0  0  0  0  0  0  0  0  0  0
   10.2140   17.4190   15.6260   C 0  0  0  0  0  0  0  0  0  0  0  0
   10.6520   18.6750   14.8900   C 0  0  0  0  0  0  0  0  0  0  0  0
   10.6780   18.4630   13.3710   C 0  0  0  0  0  0  0  0  0  0  0  0
    9.3550   18.0530   12.8630   N 0  0  0  0  0  0  0  0  0  0  0  0
    9.0810   17.8760   11.5920   C 0  0  0  0  0  0  0  0  0  0  0  0
   10.0980   18.0770   10.7490   N 0  0  0  0  0  0  0  0  0  0  0  0
    7.8840   17.5060   11.1510   N 0  3  0  0  0  0  0  0  0  0  0  0
    8.9850   15.7220   18.2850   N 0  0  0  0  0  0  0  0  0  0  0  0
  1  2  2  0  0  0  0
  1  3  1  0  0  0  0
  4  5  1  0  0  0  0
  5  6  1  0  0  0  0
  5  8  1  0  0  0  0
  6  7  2  0  0  0  0
  8  9  1  0  0  0  0
  8 10  1  0  0  0  0
 11 12  1  0  0  0  0
 12 13  1  0  0  0  0
 12 15  1  0  0  0  0
 13 14  2  0  0  0  0
 15 16  1  0  0  0  0
 15 17  1  0  0  0  0
 16 18  1  0  0  0  0
 19 20  1  0  0  0  0
 20 21  1  0  0  0  0
 20 22  1  0  0  0  0
 22 23  1  0  0  0  0
 23 24  1  0  0  0  0
 24 25  1  0  0  0  0
 26 27  1  0  0  0  0
 27 28  1  0  0  0  0
 27 30  1  0  0  0  0
 28 29  2  0  0  0  0
 30 31  1  0  0  0  0
 31 32  1  0  0  0  0
 32 33  1  0  0  0  0
 34 35  1  0  0  0  0
 35 36  1  0  0  0  0
 35 38  1  0  0  0  0
 36 37  2  0  0  0  0
 38 39  1  0  0  0  0
 39 40  1  0  0  0  0
 40 41  2  0  0  0  0
 40 42  1  0  0  0  0
 43 44  1  0  0  0  0
 44 45  1  0  0  0  0
 44 47  1  0  0  0  0
 45 46  2  0  0  0  0
 47 48  1  0  0  0  0
 48 49  1  0  0  0  0
 49 50  1  0  0  0  0
 50 51  1  0  0  0  0
 51 52  1  0  0  0  0
 51 53  2  0  0  0  0
  1  4  1  0  0  0  0
  6 11  1  0  0  0  0
 13 19  1  0  0  0  0
 21 26  1  0  0  0  0
 28 34  1  0  0  0  0
 36 43  1  0  0  0  0
 45 54  1  0  0  0  0
M  CHG  1  53   1
M  END
>  <InstanceId>
3BVA_2NC_B_200

>  <ChemCompId>
2NC

>  <PdbId>
3BVA

>  <ChainId>
B

>  <ResidueNumber>
200

>  <InsertionCode>


>  <Model>
1

>  <AltIds>


>  <MissingHeavyAtoms>
0

>  <ObservedFormula>
C35 N11 O8

>  <Name>
N-{(2S)-2-[(N-acetyl-L-threonyl-L-isoleucyl)amino]hexyl}-L-norleucyl-L-glutaminyl-N~5~-[amino(iminio)methyl]-L-ornithinamide

>  <SystematicName>
[[[(4S)-4-[[(2S)-2-[[(2S)-2-[[(2S)-2-[[(2S,3S)-2-[[(2S,3R)-2-acetamido-3-hydroxy-butanoyl]amino]-3-methyl-pentanoyl]amino]hexyl]amino]hexanoyl]amino]-5-azanyl-5-oxo-pentanoyl]amino]-5-azanyl-5-oxo-pentyl]amino]-azanyl-methylidene]azanium

>  <Synonyms>
p2/NC

>  <Type>
peptide-like

>  <Formula>
C35 H68 N11 O8

>  <MolecularWeight>
770.983

>  <ModifiedDate>
2012-01-05

>  <Parent>


>  <OneLetterCode>


>  <SubcomponentList>
ACE THR ILE 2A0 GLN ARG NH2

>  <AmbiguousFlag>
N

>  <InChI>
InChI=1S/C35H67N11O8/c1-7-10-13-23(43-33(53)28(20(4)9-3)46-34(54)29(21(5)47)42-22(6)48)19-41-25(14-11-8-2)31(51)45-26(16-17-27(36)49)32(52)44-24(30(37)50)15-12-18-40-35(38)39/h20-21,23-26,28-29,41,47H,7-19H2,1-6H3,(H2,36,49)(H2,37,50)(H,42,48)(H,43,53)(H,44,52)(H,45,51)(H,46,54)(H4,38,39,40)/p+1/t20-,21+,23-,24-,25-,26-,28-,29-/m0/s1

>  <InChIKey>
MQPXOVRKKPPKFZ-QYKDHROSSA-O

>  <SMILES>
CCCC[C@@H](CN[C@@H](CCCC)C(=O)N[C@@H](CCC(=O)N)C(=O)N[C@@H](CCCNC(=[NH2+])N)C(=O)N)NC(=O)[C@H]([C@@H](C)CC)NC(=O)[C@H]([C@@H](C)O)NC(=O)C

$$$$
