4QTL_WWO_A_304
  RCSB PDB08012023033D
Coordinates from PDB:4QTL:A:304 Model:1 without hydrogens
 27 28  0  0  0  0            999 V2000
   -4.2250    0.6300   13.9780   F 0  0  0  0  0  0  0  0  0  0  0  0
   -4.7560    1.8490   14.2760   C 0  0  0  0  0  0  0  0  0  0  0  0
   -5.4190    2.0520   15.5250   C 0  0  0  0  0  0  0  0  0  0  0  0
   -5.7490    0.7710   16.7650   S 0  0  0  0  0  0  0  0  0  0  0  0
   -7.3140    0.6990   16.8120   O 0  0  0  0  0  0  0  0  0  0  0  0
   -5.1140   -0.7160   16.1130   N 0  0  0  0  0  0  0  0  0  0  0  0
   -5.2450    0.9740   18.1690   O 0  0  0  0  0  0  0  0  0  0  0  0
   -5.9400    3.2990   15.8130   C 0  0  0  0  0  0  0  0  0  0  0  0
   -6.5760    3.5150   16.9880   F 0  0  0  0  0  0  0  0  0  0  0  0
   -5.7760    4.3460   14.9300   C 0  0  0  0  0  0  0  0  0  0  0  0
   -6.3070    5.5340   15.3300   F 0  0  0  0  0  0  0  0  0  0  0  0
   -4.6300    2.9010   13.3230   C 0  0  0  0  0  0  0  0  0  0  0  0
   -5.1530    4.1820   13.7010   C 0  0  0  0  0  0  0  0  0  0  0  0
   -5.0750    5.7280   12.7280   S 0  0  0  0  0  0  0  0  0  0  0  0
   -3.8270    5.6920   11.7760   O 0  0  0  0  0  0  0  0  0  0  0  0
   -4.4040    6.7580   13.6820   O 0  0  0  0  0  0  0  0  0  0  0  0
   -6.4220    6.5830   11.7780   C 0  0  0  0  0  0  0  0  0  0  0  0
   -5.8750    7.6990   10.8600   C 0  0  0  0  0  0  0  0  0  0  0  0
   -6.7200    8.0040    9.7750   O 0  0  0  0  0  0  0  0  0  0  0  0
   -3.9160    2.7460   12.0760   N 0  0  0  0  0  0  0  0  0  0  0  0
   -4.0970    3.4670   10.8160   C 0  0  0  0  0  0  0  0  0  0  0  0
   -2.8100    3.6000   10.0780   C 0  0  0  0  0  0  0  0  0  0  0  0
   -1.6270    3.1380   10.6660   C 0  0  0  0  0  0  0  0  0  0  0  0
   -0.4120    3.2570    9.9850   C 0  0  0  0  0  0  0  0  0  0  0  0
   -0.3760    3.8380    8.7140   C 0  0  0  0  0  0  0  0  0  0  0  0
   -1.5580    4.3010    8.1240   C 0  0  0  0  0  0  0  0  0  0  0  0
   -2.7740    4.1820    8.8060   C 0  0  0  0  0  0  0  0  0  0  0  0
  5  4  2  0  0  0  0
  4  6  1  0  0  0  0
  4  3  1  0  0  0  0
  4  7  2  0  0  0  0
 27 26  2  0  0  0  0
 27 22  1  0  0  0  0
  1  2  1  0  0  0  0
 26 25  1  0  0  0  0
 21 22  1  0  0  0  0
 21 20  1  0  0  0  0
  3  2  2  0  0  0  0
  3  8  1  0  0  0  0
  2 12  1  0  0  0  0
 22 23  2  0  0  0  0
  8  9  1  0  0  0  0
  8 10  2  0  0  0  0
 12 20  1  0  0  0  0
 12 13  2  0  0  0  0
 16 14  2  0  0  0  0
 25 24  2  0  0  0  0
 10 13  1  0  0  0  0
 10 11  1  0  0  0  0
 13 14  1  0  0  0  0
 15 14  2  0  0  0  0
 23 24  1  0  0  0  0
 14 17  1  0  0  0  0
 17 18  1  0  0  0  0
 19 18  1  0  0  0  0
M  END
>  <InstanceId>
4QTL_WWO_A_304

>  <ChemCompId>
WWO

>  <PdbId>
4QTL

>  <ChainId>
A

>  <ResidueNumber>
304

>  <InsertionCode>


>  <Model>
1

>  <AltIds>


>  <MissingHeavyAtoms>
0

>  <ObservedFormula>
C15 N2 O5 S2 F3

>  <Name>
3-(benzylamino)-2,5,6-trifluoro-4-[(2-hydroxyethyl)sulfonyl]benzenesulfonamide

>  <SystematicName>
2,3,6-tris(fluoranyl)-4-(2-hydroxyethylsulfonyl)-5-[(phenylmethyl)amino]benzenesulfonamide

>  <Synonyms>


>  <Type>
NON-POLYMER

>  <Formula>
C15 H15 F3 N2 O5 S2

>  <MolecularWeight>
424.415

>  <ModifiedDate>
2015-04-10

>  <Parent>


>  <OneLetterCode>


>  <SubcomponentList>


>  <AmbiguousFlag>
N

>  <InChI>
InChI=1S/C15H15F3N2O5S2/c16-10-11(17)15(26(22,23)7-6-21)13(12(18)14(10)27(19,24)25)20-8-9-4-2-1-3-5-9/h1-5,20-21H,6-8H2,(H2,19,24,25)

>  <InChIKey>
OLTMJLATLWYQJF-UHFFFAOYSA-N

>  <SMILES>
c1ccc(cc1)CNc2c(c(c(c(c2S(=O)(=O)CCO)F)F)S(=O)(=O)N)F

$$$$
