1G36_R11_A_990
  RCSB PDB08012014573D
Coordinates from PDB:1G36:A:990 Model:1 without hydrogens
 32 36  0  0  0  0            999 V2000
   -4.9860   10.0710   19.7450   N 0  0  0  0  0  0  0  0  0  0  0  0
   -3.0700   10.7130   18.9520   N 0  0  0  0  0  0  0  0  0  0  0  0
   -3.7400    9.7130   19.4910   C 0  0  0  0  0  0  0  0  0  0  0  0
   -3.2070    8.4440   19.7760   C 0  0  0  0  0  0  0  0  0  0  0  0
   -3.9640    7.4750   20.5100   C 0  0  0  0  0  0  0  0  0  0  0  0
   -3.4470    6.2010   20.7980   C 0  0  0  0  0  0  0  0  0  0  0  0
   -2.1490    5.8380   20.3660   C 0  0  0  0  0  0  0  0  0  0  0  0
   -1.3710    6.7640   19.6430   C 0  0  0  0  0  0  0  0  0  0  0  0
   -1.8850    8.0480   19.3490   C 0  0  0  0  0  0  0  0  0  0  0  0
   -1.5970    4.5330   20.6480   N 0  0  0  0  0  0  0  0  0  0  0  0
   -2.1230    3.5250   21.6060   C 0  0  0  0  0  0  0  0  0  0  0  0
   -3.4270    4.3970   23.5810   N 0  0  0  0  0  0  0  0  0  0  0  0
   -2.1870    3.9840   23.0760   C 0  0  0  0  0  0  0  0  0  0  0  0
   -1.0320    3.9980   23.8960   N 0  0  0  0  0  0  0  0  0  0  0  0
   -1.6310    4.4960   25.0630   C 0  0  0  0  0  0  0  0  0  0  0  0
   -3.0500    4.7310   24.8590   C 0  0  0  0  0  0  0  0  0  0  0  0
   -1.0430    4.7800   26.3400   C 0  0  0  0  0  0  0  0  0  0  0  0
   -1.8560    5.2960   27.3730   C 0  0  0  0  0  0  0  0  0  0  0  0
   -3.2480    5.5260   27.1690   C 0  0  0  0  0  0  0  0  0  0  0  0
   -3.8570    5.2470   25.9170   C 0  0  0  0  0  0  0  0  0  0  0  0
    0.3830    3.6160   23.5990   C 0  0  0  0  0  0  0  0  0  0  0  0
   -4.0940    6.0890   28.3030   C 0  0  0  0  0  0  0  0  0  0  0  0
   -3.5880    5.7900   29.6780   N 0  0  0  0  0  0  0  0  0  0  0  0
   -3.7200    4.6490   30.5010   C 0  0  0  0  0  0  0  0  0  0  0  0
   -3.1510    4.5890   31.7810   N 0  0  0  0  0  0  0  0  0  0  0  0
   -2.5770    5.8610   31.7920   C 0  0  0  0  0  0  0  0  0  0  0  0
   -2.8350    6.5760   30.5580   C 0  0  0  0  0  0  0  0  0  0  0  0
   -1.8290    6.4820   32.8450   C 0  0  0  0  0  0  0  0  0  0  0  0
   -1.3370    7.7950   32.6450   C 0  0  0  0  0  0  0  0  0  0  0  0
   -1.5780    8.4960   31.4380   C 0  0  0  0  0  0  0  0  0  0  0  0
   -2.3250    7.9050   30.3870   C 0  0  0  0  0  0  0  0  0  0  0  0
   -4.4810    3.4100   30.0230   C 0  0  0  0  0  0  0  0  0  0  0  0
  1  3  2  0  0  0  0
  2  3  1  0  0  0  0
  3  4  1  0  0  0  0
  4  5  2  0  0  0  0
  4  9  1  0  0  0  0
  5  6  1  0  0  0  0
  6  7  2  0  0  0  0
  7  8  1  0  0  0  0
  7 10  1  0  0  0  0
  8  9  2  0  0  0  0
 10 11  1  0  0  0  0
 11 13  1  0  0  0  0
 12 13  2  0  0  0  0
 12 16  1  0  0  0  0
 13 14  1  0  0  0  0
 14 15  1  0  0  0  0
 14 21  1  0  0  0  0
 15 16  2  0  0  0  0
 15 17  1  0  0  0  0
 16 20  1  0  0  0  0
 17 18  2  0  0  0  0
 18 19  1  0  0  0  0
 19 20  2  0  0  0  0
 19 22  1  0  0  0  0
 22 23  1  0  0  0  0
 23 24  1  0  0  0  0
 23 27  1  0  0  0  0
 24 25  2  0  0  0  0
 24 32  1  0  0  0  0
 25 26  1  0  0  0  0
 26 27  2  0  0  0  0
 26 28  1  0  0  0  0
 27 31  1  0  0  0  0
 28 29  2  0  0  0  0
 29 30  1  0  0  0  0
 30 31  2  0  0  0  0
M  END
>  <InstanceId>
1G36_R11_A_990

>  <ChemCompId>
R11

>  <PdbId>
1G36

>  <ChainId>
A

>  <ResidueNumber>
990

>  <InsertionCode>


>  <Model>
1

>  <AltIds>


>  <MissingHeavyAtoms>
0

>  <ObservedFormula>
C25 N7

>  <Name>
4-{[1-METHYL-5-(2-METHYL-BENZOIMIDAZOL-1-YLMETHYL)-1H-BENZOIMIDAZOL-2-YLMETHYL]-AMINO}-BENZAMIDINE

>  <SystematicName>
4-[[1-methyl-5-[(2-methylbenzimidazol-1-yl)methyl]benzimidazol-2-yl]methylamino]benzenecarboximidamide

>  <Synonyms>


>  <Type>
NON-POLYMER

>  <Formula>
C25 H25 N7

>  <MolecularWeight>
423.513

>  <ModifiedDate>
2011-06-04

>  <Parent>


>  <OneLetterCode>


>  <SubcomponentList>


>  <AmbiguousFlag>
N

>  <InChI>
InChI=1S/C25H25N7/c1-16-29-20-5-3-4-6-23(20)32(16)15-17-7-12-22-21(13-17)30-24(31(22)2)14-28-19-10-8-18(9-11-19)25(26)27/h3-13,28H,14-15H2,1-2H3,(H3,26,27)

>  <InChIKey>
IRKPNOLLMNHSOU-UHFFFAOYSA-N

>  <SMILES>
[H]/N=C(/c1ccc(cc1)NCc2nc3cc(ccc3n2C)Cn4c(nc5c4cccc5)C)\N

$$$$
