5Y94_8QC_A_201
  RCSB PDB08022003433D
Coordinates from PDB:5Y94:A:201 Model:1 without hydrogens
 25 27  0  0  0  0            999 V2000
   -4.6960   13.4020   -2.0960   C 0  0  0  0  0  0  0  0  0  0  0  0
   -4.5080   12.5680   -0.9240   O 0  0  0  0  0  0  0  0  0  0  0  0
   -4.2660   11.2410   -1.1230   C 0  0  0  0  0  0  0  0  0  0  0  0
   -4.1700   10.6780   -2.4110   C 0  0  0  0  0  0  0  0  0  0  0  0
   -3.9000    9.3470   -2.5730   C 0  0  0  0  0  0  0  0  0  0  0  0
   -3.7320    8.5400   -1.4710   C 0  0  0  0  0  0  0  0  0  0  0  0
   -3.3360    6.7450   -1.7490  Br 0  0  0  0  0  0  0  0  0  0  0  0
   -3.8260    9.0520   -0.2020   C 0  0  0  0  0  0  0  0  0  0  0  0
   -4.1080   10.3900   -0.0230   C 0  0  0  0  0  0  0  0  0  0  0  0
   -4.2170   10.9160    1.5980   S 0  0  0  0  0  0  0  0  0  0  0  0
   -3.8540    9.7920    2.5120   O 0  0  0  0  0  0  0  0  0  0  0  0
   -3.3110   12.0330    1.8140   O 0  0  0  0  0  0  0  0  0  0  0  0
   -5.7920   11.4680    1.8970   N 0  0  0  0  0  0  0  0  0  0  0  0
   -6.9000   10.6080    1.8160   C 0  0  0  0  0  0  0  0  0  0  0  0
   -7.1610    9.5580    2.7300   C 0  0  0  0  0  0  0  0  0  0  0  0
   -8.2590    8.8020    2.5930   C 0  0  0  0  0  0  0  0  0  0  0  0
   -8.7830    7.7410    3.2910   C 0  0  0  0  0  0  0  0  0  0  0  0
   -8.2330    7.0630    4.4970   C 0  0  0  0  0  0  0  0  0  0  0  0
   -9.9160    7.2810    2.7780   N 0  0  0  0  0  0  0  0  0  0  0  0
  -10.1770    8.1900    1.6120   O 0  0  0  0  0  0  0  0  0  0  0  0
   -9.1270    9.0650    1.5610   C 0  0  0  0  0  0  0  0  0  0  0  0
   -8.9470   10.0450    0.6880   C 0  0  0  0  0  0  0  0  0  0  0  0
   -7.8250   10.8270    0.7520   C 0  0  0  0  0  0  0  0  0  0  0  0
   -7.5980   11.8160   -0.1420   N 0  0  0  0  0  0  0  0  0  0  0  0
   -8.1230   11.7480   -1.5430   C 0  0  0  0  0  0  0  0  0  0  0  0
  5  4  1  0  0  0  0
  5  6  2  0  0  0  0
  4  3  2  0  0  0  0
  1  2  1  0  0  0  0
  7  6  1  0  0  0  0
 25 24  1  0  0  0  0
  6  8  1  0  0  0  0
  3  2  1  0  0  0  0
  3  9  1  0  0  0  0
  8  9  2  0  0  0  0
 24 23  1  0  0  0  0
  9 10  1  0  0  0  0
 22 23  1  0  0  0  0
 22 21  2  0  0  0  0
 23 14  2  0  0  0  0
 21 20  1  0  0  0  0
 21 16  1  0  0  0  0
 10 12  2  0  0  0  0
 10 13  1  0  0  0  0
 10 11  2  0  0  0  0
 20 19  1  0  0  0  0
 14 13  1  0  0  0  0
 14 15  1  0  0  0  0
 16 15  2  0  0  0  0
 16 17  1  0  0  0  0
 19 17  2  0  0  0  0
 17 18  1  0  0  0  0
M  END
>  <InstanceId>
5Y94_8QC_A_201

>  <ChemCompId>
8QC

>  <PdbId>
5Y94

>  <ChainId>
A

>  <ResidueNumber>
201

>  <InsertionCode>


>  <Model>
1

>  <AltIds>


>  <MissingHeavyAtoms>
0

>  <ObservedFormula>
C16 N3 O4 Br S

>  <Name>
5-bromanyl-2-methoxy-N-[3-methyl-6-(methylamino)-1,2-benzoxazol-5-yl]benzenesulfonamide

>  <SystematicName>
5-bromanyl-2-methoxy-~{N}-[3-methyl-6-(methylamino)-1,2-benzoxazol-5-yl]benzenesulfonamide

>  <Synonyms>


>  <Type>
NON-POLYMER

>  <Formula>
C16 H16 Br N3 O4 S

>  <MolecularWeight>
426.285

>  <ModifiedDate>
2018-06-08

>  <Parent>


>  <OneLetterCode>


>  <SubcomponentList>


>  <AmbiguousFlag>
N

>  <InChI>
InChI=1S/C16H16BrN3O4S/c1-9-11-7-13(12(18-2)8-15(11)24-19-9)20-25(21,22)16-6-10(17)4-5-14(16)23-3/h4-8,18,20H,1-3H3

>  <InChIKey>
DVWBDPNOOAMAKK-UHFFFAOYSA-N

>  <SMILES>
Cc1c2cc(c(cc2on1)NC)NS(=O)(=O)c3cc(ccc3OC)Br

$$$$
