5HTL_C2E_A_201
  RCSB PDB08022001393D
Coordinates from PDB:5HTL:A:201 Model:1 without hydrogens
 46 52  0  0  0  0            999 V2000
   -1.2700  -15.4640   -9.9300   P 0  0  0  0  0  0  0  0  0  0  0  0
   -2.1070  -14.3270  -10.4630   O 0  0  0  0  0  0  0  0  0  0  0  0
   -1.9390  -16.1900   -8.7820   O 0  0  0  0  0  0  0  0  0  0  0  0
   -0.9770  -16.4530  -11.1270   O 0  0  0  0  0  0  0  0  0  0  0  0
   -0.1160  -17.5570  -11.0880   C 0  0  0  0  0  0  0  0  0  0  0  0
    0.1730  -18.1460  -12.3910   C 0  0  0  0  0  0  0  0  0  0  0  0
   -0.9890  -18.6430  -12.9820   O 0  0  0  0  0  0  0  0  0  0  0  0
    0.7190  -17.1310  -13.3570   C 0  0  0  0  0  0  0  0  0  0  0  0
    2.1260  -17.1530  -13.3370   O 0  0  0  0  0  0  0  0  0  0  0  0
    0.1460  -17.4740  -14.5820   C 0  0  0  0  0  0  0  0  0  0  0  0
    1.0340  -18.3340  -15.3280   O 0  0  0  0  0  0  0  0  0  0  0  0
   -1.1320  -18.1670  -14.2880   C 0  0  0  0  0  0  0  0  0  0  0  0
   -2.2350  -17.2560  -14.2990   N 0  0  0  0  0  0  0  0  0  0  0  0
   -2.5130  -16.0320  -13.8590   C 0  0  0  0  0  0  0  0  0  0  0  0
   -3.7900  -15.7960  -14.1850   N 0  0  0  0  0  0  0  0  0  0  0  0
   -4.3010  -16.8880  -14.8280   C 0  0  0  0  0  0  0  0  0  0  0  0
   -5.5710  -17.1480  -15.3560   C 0  0  0  0  0  0  0  0  0  0  0  0
   -6.5480  -16.2220  -15.2870   O 0  0  0  0  0  0  0  0  0  0  0  0
   -5.8020  -18.3270  -15.9460   N 0  0  0  0  0  0  0  0  0  0  0  0
   -4.8320  -19.2430  -16.0100   C 0  0  0  0  0  0  0  0  0  0  0  0
   -5.1420  -20.4820  -16.6530   N 0  0  0  0  0  0  0  0  0  0  0  0
   -3.5920  -19.0430  -15.5120   N 0  0  0  0  0  0  0  0  0  0  0  0
   -3.2890  -17.8700  -14.9120   C 0  0  0  0  0  0  0  0  0  0  0  0
    2.9720  -15.8120  -13.4880   P 0  0  0  0  0  0  0  0  0  0  0  0
    4.4480  -16.1420  -13.6350   O 0  0  0  0  0  0  0  0  0  0  0  0
    2.5110  -15.1300  -14.7430   O 0  0  0  0  0  0  0  0  0  0  0  0
    2.6800  -14.8130  -12.3250   O 0  0  0  0  0  0  0  0  0  0  0  0
    2.9900  -15.1230  -10.9760   C 0  0  0  0  0  0  0  0  0  0  0  0
    2.3720  -14.2870   -9.9790   C 0  0  0  0  0  0  0  0  0  0  0  0
    2.9240  -12.9270  -10.0510   O 0  0  0  0  0  0  0  0  0  0  0  0
    0.9190  -14.1070  -10.1910   C 0  0  0  0  0  0  0  0  0  0  0  0
    0.1180  -14.9420   -9.3790   O 0  0  0  0  0  0  0  0  0  0  0  0
    0.6450  -12.6840   -9.9090   C 0  0  0  0  0  0  0  0  0  0  0  0
    0.3370  -12.4290   -8.5970   O 0  0  0  0  0  0  0  0  0  0  0  0
    1.9080  -11.9680  -10.2290   C 0  0  0  0  0  0  0  0  0  0  0  0
    2.0850  -11.4420  -11.5760   N 0  0  0  0  0  0  0  0  0  0  0  0
    1.5570  -11.8820  -12.7350   C 0  0  0  0  0  0  0  0  0  0  0  0
    2.0150  -11.1310  -13.7520   N 0  0  0  0  0  0  0  0  0  0  0  0
    2.8570  -10.2010  -13.2410   C 0  0  0  0  0  0  0  0  0  0  0  0
    3.6360   -9.1640  -13.7660   C 0  0  0  0  0  0  0  0  0  0  0  0
    3.6720   -8.8880  -15.1220   O 0  0  0  0  0  0  0  0  0  0  0  0
    4.3700   -8.4160  -12.9440   N 0  0  0  0  0  0  0  0  0  0  0  0
    4.3770   -8.6420  -11.6340   C 0  0  0  0  0  0  0  0  0  0  0  0
    5.1820   -7.7910  -10.8530   N 0  0  0  0  0  0  0  0  0  0  0  0
    3.6590   -9.6250  -11.0770   N 0  0  0  0  0  0  0  0  0  0  0  0
    2.8980  -10.4100  -11.8690   C 0  0  0  0  0  0  0  0  0  0  0  0
  1  2  1  0  0  0  0
  3  1  2  0  0  0  0
  4  1  1  0  0  0  0
  5  4  1  0  0  0  0
  6  7  1  0  0  0  0
  6  5  1  0  0  0  0
  8  6  1  0  0  0  0
  9 24  1  0  0  0  0
  9  8  1  0  0  0  0
 10  8  1  0  0  0  0
 10 12  1  0  0  0  0
 11 10  1  0  0  0  0
 12  7  1  0  0  0  0
 12 13  1  0  0  0  0
 13 23  1  0  0  0  0
 13 14  1  0  0  0  0
 14 15  2  0  0  0  0
 16 15  1  0  0  0  0
 16 17  1  0  0  0  0
 17 18  2  0  0  0  0
 19 17  1  0  0  0  0
 20 19  1  0  0  0  0
 21 20  1  0  0  0  0
 22 20  2  0  0  0  0
 22 23  1  0  0  0  0
 23 16  2  0  0  0  0
 24 25  1  0  0  0  0
 24 27  1  0  0  0  0
 26 24  2  0  0  0  0
 28 27  1  0  0  0  0
 28 29  1  0  0  0  0
 29 30  1  0  0  0  0
 29 31  1  0  0  0  0
 30 35  1  0  0  0  0
 31 33  1  0  0  0  0
 32 31  1  0  0  0  0
 32  1  1  0  0  0  0
 33 34  1  0  0  0  0
 35 33  1  0  0  0  0
 35 36  1  0  0  0  0
 36 46  1  0  0  0  0
 37 38  2  0  0  0  0
 37 36  1  0  0  0  0
 38 39  1  0  0  0  0
 39 46  2  0  0  0  0
 39 40  1  0  0  0  0
 40 41  2  0  0  0  0
 40 42  1  0  0  0  0
 43 42  1  0  0  0  0
 43 44  1  0  0  0  0
 45 43  2  0  0  0  0
 46 45  1  0  0  0  0
M  END
>  <InstanceId>
5HTL_C2E_A_201

>  <ChemCompId>
C2E

>  <PdbId>
5HTL

>  <ChainId>
A

>  <ResidueNumber>
201

>  <InsertionCode>


>  <Model>
1

>  <AltIds>


>  <MissingHeavyAtoms>
0

>  <ObservedFormula>
C20 N10 O14 P2

>  <Name>
9,9'-[(2R,3R,3aS,5S,7aR,9R,10R,10aS,12S,14aR)-3,5,10,12-tetrahydroxy-5,12-dioxidooctahydro-2H,7H-difuro[3,2-d:3',2'-j][1,3,7,9,2,8]tetraoxadiphosphacyclododecine-2,9-diyl]bis(2-amino-1,9-dihydro-6H-purin-6-one)

>  <SystematicName>


>  <Synonyms>
c-di-GMP; Cyclic diguanosine monophosphate

>  <Type>
NON-POLYMER

>  <Formula>
C20 H24 N10 O14 P2

>  <MolecularWeight>
690.411

>  <ModifiedDate>
2020-01-26

>  <Parent>


>  <OneLetterCode>


>  <SubcomponentList>


>  <AmbiguousFlag>
N

>  <InChI>
InChI=1S/C20H24N10O14P2/c21-19-25-13-7(15(33)27-19)23-3-29(13)17-9(31)11-5(41-17)1-39-45(35,36)44-12-6(2-40-46(37,38)43-11)42-18(10(12)32)30-4-24-8-14(30)26-20(22)28-16(8)34/h3-6,9-12,17-18,31-32H,1-2H2,(H,35,36)(H,37,38)(H3,21,25,27,33)(H3,22,26,28,34)/t5-,6-,9-,10-,11-,12-,17-,18-/m1/s1

>  <InChIKey>
PKFDLKSEZWEFGL-MHARETSRSA-N

>  <SMILES>
c1nc2c(n1[C@H]3[C@@H]([C@H]4[C@H](O3)CO[P@@](=O)(O[C@@H]5[C@@H](CO[P@@](=O)(O4)O)O[C@H]([C@@H]5O)n6cnc7c6N=C(NC7=O)N)O)O)N=C(NC2=O)N

$$$$
