6EIS_B6N_A_501
  RCSB PDB08022004313D
Coordinates from PDB:6EIS:A:501 Model:1 without hydrogens
 31 35  0  0  0  0            999 V2000
    0.3380  -29.7920  -12.8260   F 0  0  0  0  0  0  0  0  0  0  0  0
    1.2230  -29.0400  -13.4700   C 0  0  0  0  0  0  0  0  0  0  0  0
    0.9200  -29.0450  -14.7550   F 0  0  0  0  0  0  0  0  0  0  0  0
    2.4380  -29.5470  -13.3080   F 0  0  0  0  0  0  0  0  0  0  0  0
    1.1740  -27.7240  -12.9940   C 0  0  0  0  0  0  0  0  0  0  0  0
    0.7250  -26.7300  -13.8560   C 0  0  0  0  0  0  0  0  0  0  0  0
    0.6580  -25.4090  -13.4330   C 0  0  0  0  0  0  0  0  0  0  0  0
    0.2190  -24.4490  -14.2850   F 0  0  0  0  0  0  0  0  0  0  0  0
    1.0390  -25.0750  -12.1390   C 0  0  0  0  0  0  0  0  0  0  0  0
    1.4860  -26.0640  -11.2700   C 0  0  0  0  0  0  0  0  0  0  0  0
    1.5630  -27.3890  -11.6920   C 0  0  0  0  0  0  0  0  0  0  0  0
    2.0000  -28.3350  -10.8390   N 0  0  0  0  0  0  0  0  0  0  0  0
    3.3120  -28.7060  -10.6510   C 0  0  0  0  0  0  0  0  0  0  0  0
    4.4540  -28.1670  -11.3140   C 0  0  0  0  0  0  0  0  0  0  0  0
    4.4060  -27.1530  -12.2770   C 0  0  0  0  0  0  0  0  0  0  0  0
    1.0020  -28.9200  -10.1480   C 0  0  0  0  0  0  0  0  0  0  0  0
   -0.1560  -28.5550  -10.3520   O 0  0  0  0  0  0  0  0  0  0  0  0
    1.2310  -29.9230   -9.2240   C 0  0  0  0  0  0  0  0  0  0  0  0
    2.5310  -30.3260   -9.0060   C 0  0  0  0  0  0  0  0  0  0  0  0
    3.5570  -29.7210   -9.7150   C 0  0  0  0  0  0  0  0  0  0  0  0
    4.8390  -30.1730   -9.4500   C 0  0  0  0  0  0  0  0  0  0  0  0
    5.9220  -29.6210  -10.1120   N 0  0  0  0  0  0  0  0  0  0  0  0
    5.7330  -28.6550  -11.0120   C 0  0  0  0  0  0  0  0  0  0  0  0
    6.8700  -28.1500  -11.6370   C 0  0  0  0  0  0  0  0  0  0  0  0
    6.7850  -27.1440  -12.5850   C 0  0  0  0  0  0  0  0  0  0  0  0
    5.5350  -26.6430  -12.9070   C 0  0  0  0  0  0  0  0  0  0  0  0
    5.4260  -25.6730  -13.8120   C 0  0  0  0  0  0  0  0  0  0  0  0
    4.3000  -25.2380  -14.3540   C 0  0  0  0  0  0  0  0  0  0  0  0
    4.6540  -24.2640  -15.1950   N 0  0  0  0  0  0  0  0  0  0  0  0
    5.8920  -24.1100  -15.1670   N 0  0  0  0  0  0  0  0  0  0  0  0
    6.4350  -24.9740  -14.3080   C 0  0  0  0  0  0  0  0  0  0  0  0
 29 30  1  0  0  0  0
 29 28  1  0  0  0  0
 30 31  2  0  0  0  0
  3  2  1  0  0  0  0
 28 27  2  0  0  0  0
 31 27  1  0  0  0  0
  8  7  1  0  0  0  0
  6  7  2  0  0  0  0
  6  5  1  0  0  0  0
 27 26  1  0  0  0  0
  2  4  1  0  0  0  0
  2  5  1  0  0  0  0
  2  1  1  0  0  0  0
  7  9  1  0  0  0  0
  5 11  2  0  0  0  0
 26 25  2  0  0  0  0
 26 15  1  0  0  0  0
 25 24  1  0  0  0  0
 15 14  2  0  0  0  0
  9 10  2  0  0  0  0
 11 10  1  0  0  0  0
 11 12  1  0  0  0  0
 24 23  2  0  0  0  0
 14 23  1  0  0  0  0
 14 13  1  0  0  0  0
 23 22  1  0  0  0  0
 12 13  1  0  0  0  0
 12 16  1  0  0  0  0
 13 20  2  0  0  0  0
 17 16  2  0  0  0  0
 16 18  1  0  0  0  0
 22 21  2  0  0  0  0
 20 21  1  0  0  0  0
 20 19  1  0  0  0  0
 18 19  2  0  0  0  0
M  END
>  <InstanceId>
6EIS_B6N_A_501

>  <ChemCompId>
B6N

>  <PdbId>
6EIS

>  <ChainId>
A

>  <ResidueNumber>
501

>  <InsertionCode>


>  <Model>
1

>  <AltIds>


>  <MissingHeavyAtoms>
0

>  <ObservedFormula>
C22 N4 O F4

>  <Name>
1-[4-fluoranyl-2-(trifluoromethyl)phenyl]-9-(1~{H}-pyrazol-4-yl)benzo[h][1,6]naphthyridin-2-one

>  <SystematicName>
1-[4-fluoranyl-2-(trifluoromethyl)phenyl]-9-(1~{H}-pyrazol-4-yl)benzo[h][1,6]naphthyridin-2-one

>  <Synonyms>


>  <Type>
NON-POLYMER

>  <Formula>
C22 H12 F4 N4 O

>  <MolecularWeight>
424.35

>  <ModifiedDate>
2018-08-24

>  <Parent>


>  <OneLetterCode>


>  <SubcomponentList>


>  <AmbiguousFlag>
N

>  <InChI>
InChI=1S/C22H12F4N4O/c23-15-3-5-19(17(8-15)22(24,25)26)30-20(31)6-2-13-9-27-18-4-1-12(7-16(18)21(13)30)14-10-28-29-11-14/h1-11H,(H,28,29)

>  <InChIKey>
GDVQGEPAYBCRBS-UHFFFAOYSA-N

>  <SMILES>
c1cc2c(cc1c3c[nH]nc3)c4c(cn2)C=CC(=O)N4c5ccc(cc5C(F)(F)F)F

$$$$
