3RYX_RYX_B_1
  RCSB PDB08012020243D
Coordinates from PDB:3RYX:B:1 Model:1 without hydrogens
 21 21  0  0  0  0            999 V2000
   15.3200   -0.0610   16.9560   S 0  0  0  0  0  0  0  0  0  0  0  0
   18.6740    4.8340   13.6410   N 0  0  0  0  0  0  0  0  0  0  0  0
   16.6340    5.7160   13.7550   O 0  0  0  0  0  0  0  0  0  0  0  0
   16.8450    3.6210   14.7750   C 0  0  0  0  0  0  0  0  0  0  0  0
   17.2920    1.4320   15.8440   C 0  0  0  0  0  0  0  0  0  0  0  0
   17.7040    2.5550   15.1230   C 0  0  0  0  0  0  0  0  0  0  0  0
   15.9090    1.2880   16.1400   C 0  0  0  0  0  0  0  0  0  0  0  0
   15.4790    3.5400   15.0770   C 0  0  0  0  0  0  0  0  0  0  0  0
   15.0580    2.3560   15.7010   C 0  0  0  0  0  0  0  0  0  0  0  0
   17.3920    4.7960   14.0350   C 0  0  0  0  0  0  0  0  0  0  0  0
   21.2210    5.9120   13.4060   F 0  0  0  0  0  0  0  0  0  0  0  0
   20.3440    8.3910   12.5280   F 0  0  0  0  0  0  0  0  0  0  0  0
   19.9110    6.4730   15.1970   F 0  0  0  0  0  0  0  0  0  0  0  0
   20.8790    8.7160   14.6690   F 0  0  0  0  0  0  0  0  0  0  0  0
   18.8560    8.1270   14.3260   F 0  0  0  0  0  0  0  0  0  0  0  0
   19.1600    5.9710   12.8980   C 0  0  0  0  0  0  0  0  0  0  0  0
   13.8650    0.0450   16.8310   O 0  0  0  0  0  0  0  0  0  0  0  0
   20.1680    6.5780   13.8780   C 0  0  0  0  0  0  0  0  0  0  0  0
   15.8390    0.0180   18.2890   O 0  0  0  0  0  0  0  0  0  0  0  0
   20.0870    8.0650   13.8130   C 0  0  0  0  0  0  0  0  0  0  0  0
   15.9410   -1.3240   16.2230   N 0  0  0  0  0  0  0  0  0  0  0  0
  7  1  1  0  0  0  0
 21  1  1  0  0  0  0
 17  1  2  0  0  0  0
  1 19  2  0  0  0  0
 16  2  1  0  0  0  0
  2 10  1  0  0  0  0
  3 10  2  0  0  0  0
 10  4  1  0  0  0  0
  4  8  2  0  0  0  0
  4  6  1  0  0  0  0
  6  5  2  0  0  0  0
  5  7  1  0  0  0  0
  9  7  2  0  0  0  0
  8  9  1  0  0  0  0
 11 18  1  0  0  0  0
 12 20  1  0  0  0  0
 18 13  1  0  0  0  0
 20 14  1  0  0  0  0
 20 15  1  0  0  0  0
 16 18  1  0  0  0  0
 20 18  1  0  0  0  0
M  END
>  <InstanceId>
3RYX_RYX_B_1

>  <ChemCompId>
RYX

>  <PdbId>
3RYX

>  <ChainId>
B

>  <ResidueNumber>
1

>  <InsertionCode>


>  <Model>
1

>  <AltIds>


>  <MissingHeavyAtoms>
0

>  <ObservedFormula>
C10 N2 O3 S F5

>  <Name>
N-(2,2,3,3,3-pentafluoropropyl)-4-sulfamoylbenzamide

>  <SystematicName>
N-[2,2,3,3,3-pentakis(fluoranyl)propyl]-4-sulfamoyl-benzamide

>  <Synonyms>


>  <Type>
NON-POLYMER

>  <Formula>
C10 H9 F5 N2 O3 S

>  <MolecularWeight>
332.247

>  <ModifiedDate>
2011-08-05

>  <Parent>


>  <OneLetterCode>


>  <SubcomponentList>


>  <AmbiguousFlag>
N

>  <InChI>
InChI=1S/C10H9F5N2O3S/c11-9(12,10(13,14)15)5-17-8(18)6-1-3-7(4-2-6)21(16,19)20/h1-4H,5H2,(H,17,18)(H2,16,19,20)

>  <InChIKey>
XRWFNUPDTKOWTL-UHFFFAOYSA-N

>  <SMILES>
c1cc(ccc1C(=O)NCC(C(F)(F)F)(F)F)S(=O)(=O)N

$$$$
