4R76_R5X_A_1004
  RCSB PDB08012023073D
Coordinates from PDB:4R76:A:1004 Model:1 without hydrogens
 26 28  0  0  0  0            999 V2000
   80.7970   71.4510   33.0880   C 0  0  0  0  0  0  0  0  0  0  0  0
   91.5320   70.8200   31.9050   C 0  0  0  0  0  0  0  0  0  0  0  0
   92.6530   70.2170   31.3420   C 0  0  0  0  0  0  0  0  0  0  0  0
   92.2700   71.4060   29.2830   C 0  0  0  0  0  0  0  0  0  0  0  0
   84.2910   73.3140   32.3850   C 0  0  0  0  0  0  0  0  0  0  0  0
   85.5570   73.8120   32.1250   C 0  0  0  0  0  0  0  0  0  0  0  0
   86.4430   73.1290   31.2980   C 0  0  0  0  0  0  0  0  0  0  0  0
   86.0510   71.9310   30.7100   C 0  0  0  0  0  0  0  0  0  0  0  0
   84.7740   71.4290   30.9730   C 0  0  0  0  0  0  0  0  0  0  0  0
   83.8950   72.1190   31.8070   C 0  0  0  0  0  0  0  0  0  0  0  0
   82.6740   71.6600   32.0760   N 0  0  0  0  0  0  0  0  0  0  0  0
   82.0610   70.8230   31.4740   N 0  0  0  0  0  0  0  0  0  0  0  0
   80.8720   70.6350   32.0470   C 0  0  0  0  0  0  0  0  0  0  0  0
   81.9480   72.1050   33.1030   C 0  0  0  0  0  0  0  0  0  0  0  0
   87.6900   73.7380   31.1020   C 0  0  0  0  0  0  0  0  0  0  0  0
   88.8460   72.8880   30.7680   N 0  0  0  0  0  0  0  0  0  0  0  0
   87.5870   74.7910   30.0020   C 0  0  0  0  0  0  0  0  0  0  0  0
   87.2330   74.4910   28.8630   O 0  0  0  0  0  0  0  0  0  0  0  0
   87.9410   76.0230   30.3840   N 0  0  0  0  0  0  0  0  0  0  0  0
   87.8810   77.0340   29.4100   O 0  0  0  0  0  0  0  0  0  0  0  0
   89.6580   72.3440   31.6840   C 0  0  0  0  0  0  0  0  0  0  0  0
   90.7710   71.7050   31.1490   C 0  0  0  0  0  0  0  0  0  0  0  0
   89.4920   72.4280   32.8990   O 0  0  0  0  0  0  0  0  0  0  0  0
   93.0230   70.5100   30.0330   C 0  0  0  0  0  0  0  0  0  0  0  0
   91.1500   72.0060   29.8450   C 0  0  0  0  0  0  0  0  0  0  0  0
   93.3760   69.3570   32.0570   N 0  0  0  0  0  0  0  0  0  0  0  0
 26  3  1  0  0  0  0
 20 19  1  0  0  0  0
  3  2  2  0  0  0  0
  3 24  1  0  0  0  0
  2 22  1  0  0  0  0
 18 17  2  0  0  0  0
 19 17  1  0  0  0  0
 24  4  2  0  0  0  0
 17 15  1  0  0  0  0
 22 21  1  0  0  0  0
 22 25  2  0  0  0  0
 16 21  1  0  0  0  0
 16 15  1  0  0  0  0
 21 23  2  0  0  0  0
 15  7  1  0  0  0  0
  4 25  1  0  0  0  0
  7  8  2  0  0  0  0
  7  6  1  0  0  0  0
  8  9  1  0  0  0  0
  6  5  2  0  0  0  0
  9 10  2  0  0  0  0
  5 10  1  0  0  0  0
 10 11  1  0  0  0  0
 11 12  1  0  0  0  0
 11 14  1  0  0  0  0
 12 13  2  0  0  0  0
 14  1  2  0  0  0  0
 13  1  1  0  0  0  0
M  END
>  <InstanceId>
4R76_R5X_A_1004

>  <ChemCompId>
R5X

>  <PdbId>
4R76

>  <ChainId>
A

>  <ResidueNumber>
1004

>  <InsertionCode>


>  <Model>
1

>  <AltIds>


>  <MissingHeavyAtoms>
0

>  <ObservedFormula>
C18 N5 O3

>  <Name>
3-amino-N-{(1R)-2-(hydroxyamino)-2-oxo-1-[4-(1H-pyrazol-1-yl)phenyl]ethyl}benzamide

>  <SystematicName>
3-azanyl-N-[(1R)-2-(oxidanylamino)-2-oxidanylidene-1-(4-pyrazol-1-ylphenyl)ethyl]benzamide

>  <Synonyms>


>  <Type>
NON-POLYMER

>  <Formula>
C18 H17 N5 O3

>  <MolecularWeight>
351.359

>  <ModifiedDate>
2014-10-24

>  <Parent>


>  <OneLetterCode>


>  <SubcomponentList>


>  <AmbiguousFlag>
N

>  <InChI>
InChI=1S/C18H17N5O3/c19-14-4-1-3-13(11-14)17(24)21-16(18(25)22-26)12-5-7-15(8-6-12)23-10-2-9-20-23/h1-11,16,26H,19H2,(H,21,24)(H,22,25)/t16-/m1/s1

>  <InChIKey>
MDRSEUSHAKMGJK-MRXNPFEDSA-N

>  <SMILES>
c1cc(cc(c1)N)C(=O)N[C@H](c2ccc(cc2)n3cccn3)C(=O)NO

$$$$
