2YFX_VGH_A_9000
  RCSB PDB08012018223D
Coordinates from PDB:2YFX:A:9000 Model:1 without hydrogens
 30 33  0  0  0  0            999 V2000
   33.2070   46.1070    6.4440  Cl 0  0  0  0  0  0  0  0  0  0  0  0
   33.6970   45.8390    8.0910   C 0  0  0  0  0  0  0  0  0  0  0  0
   34.5300   46.8340    8.6780   C 0  0  0  0  0  0  0  0  0  0  0  0
   34.9870   46.7120   10.0140   C 0  0  0  0  0  0  0  0  0  0  0  0
   34.6210   45.5890   10.8030   C 0  0  0  0  0  0  0  0  0  0  0  0
   35.0760   45.5080   12.0650   F 0  0  0  0  0  0  0  0  0  0  0  0
   33.2980   44.6720    8.8630   C 0  0  0  0  0  0  0  0  0  0  0  0
   33.7800   44.5630   10.2490   C 0  0  0  0  0  0  0  0  0  0  0  0
   33.3790   43.2190   11.2970  Cl 0  0  0  0  0  0  0  0  0  0  0  0
   32.3850   43.5800    8.2020   C 0  0  0  0  0  0  0  0  0  0  0  0
   33.1000   42.2190    8.1980   C 0  0  0  0  0  0  0  0  0  0  0  0
   31.0970   43.3550    8.8780   O 0  0  0  0  0  0  0  0  0  0  0  0
   30.0750   44.2980    9.0310   C 0  0  0  0  0  0  0  0  0  0  0  0
   29.9670   45.5330    8.3040   C 0  0  0  0  0  0  0  0  0  0  0  0
   29.0210   44.0250    9.9640   C 0  0  0  0  0  0  0  0  0  0  0  0
   29.0600   42.8270   10.7070   N 0  0  0  0  0  0  0  0  0  0  0  0
   27.9640   44.8480   10.1840   N 0  0  0  0  0  0  0  0  0  0  0  0
   27.8920   46.0120    9.4790   C 0  0  0  0  0  0  0  0  0  0  0  0
   28.8710   46.4160    8.5180   C 0  0  0  0  0  0  0  0  0  0  0  0
   28.7630   47.7180    7.7450   C 0  0  0  0  0  0  0  0  0  0  0  0
   29.8280   48.4300    7.0310   C 0  0  0  0  0  0  0  0  0  0  0  0
   27.6270   48.4950    7.5570   C 0  0  0  0  0  0  0  0  0  0  0  0
   28.0760   49.5740    6.7720   N 0  0  0  0  0  0  0  0  0  0  0  0
   29.3340   49.4940    6.4990   N 0  0  0  0  0  0  0  0  0  0  0  0
   27.2350   50.6960    6.2910   C 0  0  0  0  0  0  0  0  0  0  0  0
   26.8940   51.6490    7.4550   C 0  0  0  0  0  0  0  0  0  0  0  0
   26.0170   52.8090    6.9290   C 0  0  0  0  0  0  0  0  0  0  0  0
   24.7880   52.3200    6.2390   N 0  0  0  0  0  0  0  0  0  0  0  0
   25.0880   51.3610    5.1380   C 0  0  0  0  0  0  0  0  0  0  0  0
   25.9410   50.1670    5.6240   C 0  0  0  0  0  0  0  0  0  0  0  0
  1  2  1  0  0  0  0
  2  3  1  0  0  0  0
  2  7  2  0  0  0  0
  3  4  2  0  0  0  0
  4  5  1  0  0  0  0
  5  6  1  0  0  0  0
  5  8  2  0  0  0  0
  7  8  1  0  0  0  0
  7 10  1  0  0  0  0
  8  9  1  0  0  0  0
 10 11  1  0  0  0  0
 10 12  1  0  0  0  0
 12 13  1  0  0  0  0
 13 14  2  0  0  0  0
 13 15  1  0  0  0  0
 14 19  1  0  0  0  0
 15 16  1  0  0  0  0
 15 17  2  0  0  0  0
 17 18  1  0  0  0  0
 18 19  2  0  0  0  0
 19 20  1  0  0  0  0
 20 21  1  0  0  0  0
 20 22  2  0  0  0  0
 21 24  2  0  0  0  0
 22 23  1  0  0  0  0
 23 24  1  0  0  0  0
 23 25  1  0  0  0  0
 25 26  1  0  0  0  0
 25 30  1  0  0  0  0
 26 27  1  0  0  0  0
 27 28  1  0  0  0  0
 28 29  1  0  0  0  0
 29 30  1  0  0  0  0
M  END
>  <InstanceId>
2YFX_VGH_A_9000

>  <ChemCompId>
VGH

>  <PdbId>
2YFX

>  <ChainId>
A

>  <ResidueNumber>
9000

>  <InsertionCode>


>  <Model>
1

>  <AltIds>


>  <MissingHeavyAtoms>
0

>  <ObservedFormula>
C21 N5 O F Cl2

>  <Name>
3-[(1R)-1-(2,6-dichloro-3-fluorophenyl)ethoxy]-5-(1-piperidin-4-yl-1H-pyrazol-4-yl)pyridin-2-amine

>  <SystematicName>
3-[(1R)-1-(2,6-dichloro-3-fluoro-phenyl)ethoxy]-5-(1-piperidin-4-ylpyrazol-4-yl)pyridin-2-amine

>  <Synonyms>
CRIZOTINIB

>  <Type>
non-polymer

>  <Formula>
C21 H22 Cl2 F N5 O

>  <MolecularWeight>
450.337

>  <ModifiedDate>
2020-06-17

>  <Parent>


>  <OneLetterCode>


>  <SubcomponentList>


>  <AmbiguousFlag>
N

>  <InChI>
InChI=1S/C21H22Cl2FN5O/c1-12(19-16(22)2-3-17(24)20(19)23)30-18-8-13(9-27-21(18)25)14-10-28-29(11-14)15-4-6-26-7-5-15/h2-3,8-12,15,26H,4-7H2,1H3,(H2,25,27)/t12-/m1/s1

>  <InChIKey>
KTEIFNKAUNYNJU-GFCCVEGCSA-N

>  <SMILES>
C[C@H](c1c(ccc(c1Cl)F)Cl)Oc2cc(cnc2N)c3cnn(c3)C4CCNCC4

$$$$
