2ZFP_19U_H_801
  RCSB PDB08012018273D
Coordinates from PDB:2ZFP:H:801 Model:1 without hydrogens
 22 23  0  0  0  0            999 V2000
   16.5370  -15.8360   23.3100   N 0  0  0  0  0  0  0  0  0  0  0  0
   17.7460  -15.0060   23.0980   C 0  0  0  0  0  0  0  0  0  0  0  0
   17.3840  -13.6710   22.4600   C 0  0  0  0  0  0  0  0  0  0  0  0
   16.3750  -13.1400   22.9140   O 0  0  0  0  0  0  0  0  0  0  0  0
   18.3830  -14.7220   24.4870   C 0  0  0  0  0  0  0  0  0  0  0  0
   19.8130  -14.1810   24.2950   C 0  0  0  0  0  0  0  0  0  0  0  0
   18.1120  -13.1040   21.4600   N 0  0  0  0  0  0  0  0  0  0  0  0
   17.7820  -11.7870   20.9290   C 0  0  0  0  0  0  0  0  0  0  0  0
   16.3290  -11.6340   20.5720   C 0  0  0  0  0  0  0  0  0  0  0  0
   15.7310  -12.5940   20.1030   O 0  0  0  0  0  0  0  0  0  0  0  0
   18.7040  -11.8010   19.6800   C 0  0  0  0  0  0  0  0  0  0  0  0
   19.9930  -12.4470   20.2640   C 0  0  0  0  0  0  0  0  0  0  0  0
   19.4170  -13.6460   21.0650   C 0  0  0  0  0  0  0  0  0  0  0  0
   15.6920  -10.4550   20.8000   N 0  0  0  0  0  0  0  0  0  0  0  0
   14.3020  -10.3570   20.3610   C 0  0  0  0  0  0  0  0  0  0  0  0
   13.3070  -10.3530   21.5240   C 0  0  0  0  0  0  0  0  0  0  0  0
   12.4580  -11.4560   21.6750   C 0  0  0  0  0  0  0  0  0  0  0  0
   11.5310  -11.5060   22.7180   C 0  0  0  0  0  0  0  0  0  0  0  0
   11.4440  -10.4450   23.6260   C 0  0  0  0  0  0  0  0  0  0  0  0
   12.2860   -9.3320   23.4900   C 0  0  0  0  0  0  0  0  0  0  0  0
   13.2110   -9.2950   22.4380   C 0  0  0  0  0  0  0  0  0  0  0  0
   12.1580   -8.0080   24.6450  Cl 0  0  0  0  0  0  0  0  0  0  0  0
  7 13  1  0  0  0  0
  7  3  1  0  0  0  0
  7  8  1  0  0  0  0
 13 12  1  0  0  0  0
  9  8  1  0  0  0  0
  9 14  1  0  0  0  0
  9 10  2  0  0  0  0
  2  5  1  0  0  0  0
  2  1  1  0  0  0  0
  2  3  1  0  0  0  0
  6  5  1  0  0  0  0
 15 14  1  0  0  0  0
 15 16  1  0  0  0  0
 17 16  2  0  0  0  0
 17 18  1  0  0  0  0
 19 20  1  0  0  0  0
 19 18  2  0  0  0  0
  3  4  2  0  0  0  0
 12 11  1  0  0  0  0
 11  8  1  0  0  0  0
 16 21  1  0  0  0  0
 21 20  2  0  0  0  0
 20 22  1  0  0  0  0
M  END
>  <InstanceId>
2ZFP_19U_H_801

>  <ChemCompId>
19U

>  <PdbId>
2ZFP

>  <ChainId>
H

>  <ResidueNumber>
801

>  <InsertionCode>


>  <Model>
1

>  <AltIds>


>  <MissingHeavyAtoms>
0

>  <ObservedFormula>
C16 N3 O2 Cl

>  <Name>
1-[(2R)-2-aminobutanoyl]-N-(3-chlorobenzyl)-L-prolinamide

>  <SystematicName>
(2S)-1-[(2R)-2-azanylbutanoyl]-N-[(3-chlorophenyl)methyl]pyrrolidine-2-carboxamide

>  <Synonyms>


>  <Type>
peptide-like

>  <Formula>
C16 H22 Cl N3 O2

>  <MolecularWeight>
323.818

>  <ModifiedDate>
2012-01-11

>  <Parent>


>  <OneLetterCode>


>  <SubcomponentList>
DBB PRO C2A

>  <AmbiguousFlag>
N

>  <InChI>
InChI=1S/C16H22ClN3O2/c1-2-13(18)16(22)20-8-4-7-14(20)15(21)19-10-11-5-3-6-12(17)9-11/h3,5-6,9,13-14H,2,4,7-8,10,18H2,1H3,(H,19,21)/t13-,14+/m1/s1

>  <InChIKey>
OTYYXGRJXJFTCD-KGLIPLIRSA-N

>  <SMILES>
CC[C@H](C(=O)N1CCC[C@H]1C(=O)NCc2cccc(c2)Cl)N

$$$$
