1OYQ_T87_A_1
  RCSB PDB08012015403D
Coordinates from PDB:1OYQ:A:1 Model:1 without hydrogens
 39 43  0  0  0  0            999 V2000
   -5.0190   10.1310   19.8050   N 0  0  0  0  0  0  0  0  0  0  0  0
   -3.1090   10.8320   19.0180   N 0  0  0  0  0  0  0  0  0  0  0  0
   -3.7590    9.8110   19.5430   C 0  0  0  0  0  0  0  0  0  0  0  0
   -3.1990    8.5470   19.7670   C 0  0  0  0  0  0  0  0  0  0  0  0
   -3.9600    7.4910   20.3590   C 0  0  0  0  0  0  0  0  0  0  0  0
   -3.4050    6.2260   20.5810   C 0  0  0  0  0  0  0  0  0  0  0  0
   -2.0670    5.9600   20.2190   C 0  0  0  0  0  0  0  0  0  0  0  0
   -1.2860    6.9720   19.6350   C 0  0  0  0  0  0  0  0  0  0  0  0
   -1.8370    8.2440   19.4110   C 0  0  0  0  0  0  0  0  0  0  0  0
   -1.4620    4.6710   20.4280   N 0  0  0  0  0  0  0  0  0  0  0  0
   -1.9140    3.5810   21.3250   C 0  0  0  0  0  0  0  0  0  0  0  0
   -3.3210    4.2790   23.2760   N 0  0  0  0  0  0  0  0  0  0  0  0
   -2.0490    3.9470   22.8090   C 0  0  0  0  0  0  0  0  0  0  0  0
   -0.9360    3.9540   23.6790   N 0  0  0  0  0  0  0  0  0  0  0  0
   -1.6050    4.3430   24.8400   C 0  0  0  0  0  0  0  0  0  0  0  0
   -3.0180    4.5350   24.5940   C 0  0  0  0  0  0  0  0  0  0  0  0
   -1.0780    4.5600   26.1550   C 0  0  0  0  0  0  0  0  0  0  0  0
   -1.9480    4.9610   27.1810   C 0  0  0  0  0  0  0  0  0  0  0  0
   -3.3470    5.1540   26.9540   C 0  0  0  0  0  0  0  0  0  0  0  0
   -3.8870    4.9410   25.6560   C 0  0  0  0  0  0  0  0  0  0  0  0
    0.5100    3.6470   23.4490   C 0  0  0  0  0  0  0  0  0  0  0  0
   -5.7810    5.6030   28.0770   C 0  0  0  0  0  0  0  0  0  0  0  0
   -5.0300    6.9050   27.7080   C 0  0  0  0  0  0  0  0  0  0  0  0
   -4.2700    5.6670   28.1120   C 0  0  0  0  0  0  0  0  0  0  0  0
   -3.6240    5.2410   29.4620   C 0  0  0  0  0  0  0  0  0  0  0  0
   -3.7730    4.0090   29.8970   N 0  0  0  0  0  0  0  0  0  0  0  0
   -2.8060    6.2900   31.6930   N 0  0  0  0  0  0  0  0  0  0  0  0
   -2.7890    6.2830   30.2730   C 0  0  0  0  0  0  0  0  0  0  0  0
   -2.0000    7.2410   29.5940   C 0  0  0  0  0  0  0  0  0  0  0  0
   -1.2420    8.1850   30.3270   C 0  0  0  0  0  0  0  0  0  0  0  0
   -1.2610    8.1900   31.7450   C 0  0  0  0  0  0  0  0  0  0  0  0
   -2.0430    7.2420   32.4320   C 0  0  0  0  0  0  0  0  0  0  0  0
   -4.5710    3.0370   29.1000   O 0  0  0  0  0  0  0  0  0  0  0  0
   -4.6000    1.7620   29.7460   C 0  0  0  0  0  0  0  0  0  0  0  0
   -5.3700    0.7670   28.8600   C 0  0  0  0  0  0  0  0  0  0  0  0
   -6.0520   -0.1190   29.3960   O 0  0  0  0  0  0  0  0  0  0  0  0
   -5.2870    0.8810   27.4870   O 0  0  0  0  0  0  0  0  0  0  0  0
   -6.2810    0.2790   25.3430   C 0  0  0  0  0  0  0  0  0  0  0  0
   -6.0670   -0.1290   26.8150   C 0  0  0  0  0  0  0  0  0  0  0  0
  1  3  2  0  0  0  0
  2  3  1  0  0  0  0
  3  4  1  0  0  0  0
  4  5  2  0  0  0  0
  4  9  1  0  0  0  0
  5  6  1  0  0  0  0
  6  7  2  0  0  0  0
  7  8  1  0  0  0  0
  7 10  1  0  0  0  0
  8  9  2  0  0  0  0
 10 11  1  0  0  0  0
 11 13  1  0  0  0  0
 12 13  2  0  0  0  0
 12 16  1  0  0  0  0
 13 14  1  0  0  0  0
 14 15  1  0  0  0  0
 14 21  1  0  0  0  0
 15 16  2  0  0  0  0
 15 17  1  0  0  0  0
 16 20  1  0  0  0  0
 17 18  2  0  0  0  0
 18 19  1  0  0  0  0
 19 20  2  0  0  0  0
 19 24  1  0  0  0  0
 22 23  1  0  0  0  0
 22 24  1  0  0  0  0
 23 24  1  0  0  0  0
 24 25  1  0  0  0  0
 25 26  2  0  0  0  0
 25 28  1  0  0  0  0
 26 33  1  0  0  0  0
 27 28  2  0  0  0  0
 27 32  1  0  0  0  0
 28 29  1  0  0  0  0
 29 30  2  0  0  0  0
 30 31  1  0  0  0  0
 31 32  2  0  0  0  0
 33 34  1  0  0  0  0
 34 35  1  0  0  0  0
 35 36  2  0  0  0  0
 35 37  1  0  0  0  0
 37 39  1  0  0  0  0
 38 39  1  0  0  0  0
M  END
>  <InstanceId>
1OYQ_T87_A_1

>  <ChemCompId>
T87

>  <PdbId>
1OYQ

>  <ChainId>
A

>  <ResidueNumber>
1

>  <InsertionCode>


>  <Model>
1

>  <AltIds>


>  <MissingHeavyAtoms>
0

>  <ObservedFormula>
C29 N7 O3

>  <Name>
[(1-{2[(4-CARBAMIMIDOYL-PHENYLAMINO)-METHYL]-1-METHYL-1H-BENZOIMIDAZOL-5-YL}-CYCLOPROPYL)-PYRIDIN-2-YL-METHYLENEAMINOOXY]-ACETIC ACID ETHYL ESTER

>  <SystematicName>
ethyl 2-[[[1-[2-[[(4-carbamimidoylphenyl)amino]methyl]-1-methyl-benzimidazol-5-yl]cyclopropyl]-pyridin-2-yl-methylidene]amino]oxyethanoate

>  <Synonyms>


>  <Type>
NON-POLYMER

>  <Formula>
C29 H31 N7 O3

>  <MolecularWeight>
525.602

>  <ModifiedDate>
2011-06-04

>  <Parent>


>  <OneLetterCode>


>  <SubcomponentList>


>  <AmbiguousFlag>
N

>  <InChI>
InChI=1S/C29H31N7O3/c1-3-38-26(37)18-39-35-27(22-6-4-5-15-32-22)29(13-14-29)20-9-12-24-23(16-20)34-25(36(24)2)17-33-21-10-7-19(8-11-21)28(30)31/h4-12,15-16,33H,3,13-14,17-18H2,1-2H3,(H3,30,31)/b35-27-

>  <InChIKey>
RNOYCNIZOAIUSV-LSWMGQQCSA-N

>  <SMILES>
[H]/N=C(/c1ccc(cc1)NCc2nc3cc(ccc3n2C)C4(CC4)/C(=N\OCC(=O)OCC)/c5ccccn5)\N

$$$$
