6GFZ_EXE_C_301
  RCSB PDB08022004483D
Coordinates from PDB:6GFZ:C:301 Model:1 without hydrogens
 34 36  0  0  0  0            999 V2000
   10.5180   56.5010   95.1370   C 0  0  0  0  0  0  0  0  0  0  0  0
   11.8370   55.9720   94.5370   C 0  0  0  0  0  0  0  0  0  0  0  0
   12.8730   56.6150   94.6550   O 0  0  0  0  0  0  0  0  0  0  0  0
   11.7350   54.7760   93.9420   N 0  0  0  0  0  0  0  0  0  0  0  0
   12.8340   54.0710   93.2700   C 0  0  0  0  0  0  0  0  0  0  0  0
   12.9640   52.6300   93.8150   C 0  0  0  0  0  0  0  0  0  0  0  0
   14.0560   51.8660   93.0180   C 0  0  0  0  0  0  0  0  0  0  0  0
   11.6480   51.8070   93.7330   C 0  0  0  0  0  0  0  0  0  0  0  0
   13.3390   52.7410   95.3020   C 0  0  0  0  0  0  0  0  0  0  0  0
   12.4810   54.1060   91.7620   C 0  0  0  0  0  0  0  0  0  0  0  0
   11.3140   53.9210   91.4370   O 0  0  0  0  0  0  0  0  0  0  0  0
   13.4510   54.4250   90.8590   N 0  0  0  0  0  0  0  0  0  0  0  0
   14.9130   54.7400   91.0480   C 0  0  0  0  0  0  0  0  0  0  0  0
   15.3080   55.6020   89.8240   C 0  0  0  0  0  0  0  0  0  0  0  0
   14.9660   56.9700   90.0230   O 0  0  0  0  0  0  0  0  0  0  0  0
   14.4790   54.9950   88.7400   C 0  0  0  0  0  0  0  0  0  0  0  0
   15.1710   53.8700   88.3150   F 0  0  0  0  0  0  0  0  0  0  0  0
   13.1280   54.5600   89.4040   C 0  0  0  0  0  0  0  0  0  0  0  0
   12.7370   53.3520   88.8410   C 0  0  0  0  0  0  0  0  0  0  0  0
   13.2050   52.3150   89.3140   O 0  0  0  0  0  0  0  0  0  0  0  0
   11.9850   53.4160   87.7020   N 0  0  0  0  0  0  0  0  0  0  0  0
   11.6380   52.1760   86.9780   C 0  0  0  0  0  0  0  0  0  0  0  0
   12.4400   52.0060   85.7830   C 0  0  0  0  0  0  0  0  0  0  0  0
   12.2980   50.8280   85.0270   C 0  0  0  0  0  0  0  0  0  0  0  0
   13.0510   50.5940   83.8660   C 0  0  0  0  0  0  0  0  0  0  0  0
   13.3910   52.9410   85.3280   C 0  0  0  0  0  0  0  0  0  0  0  0
   14.1330   52.6980   84.1530   C 0  0  0  0  0  0  0  0  0  0  0  0
   13.9800   51.5400   83.3860   C 0  0  0  0  0  0  0  0  0  0  0  0
   14.7390   51.3260   82.2780   C 0  0  0  0  0  0  0  0  0  0  0  0
   16.3740   51.7960   82.1010   S 0  0  0  0  0  0  0  0  0  0  0  0
   16.5900   51.1530   80.6040   C 0  0  0  0  0  0  0  0  0  0  0  0
   15.4540   50.5890   80.2180   N 0  0  0  0  0  0  0  0  0  0  0  0
   14.4460   50.6810   81.1200   C 0  0  0  0  0  0  0  0  0  0  0  0
   13.0970   50.0490   80.7650   C 0  0  0  0  0  0  0  0  0  0  0  0
 32 31  2  0  0  0  0
 32 33  1  0  0  0  0
 31 30  1  0  0  0  0
 34 33  1  0  0  0  0
 33 29  2  0  0  0  0
 30 29  1  0  0  0  0
 29 28  1  0  0  0  0
 28 25  2  0  0  0  0
 28 27  1  0  0  0  0
 25 24  1  0  0  0  0
 27 26  2  0  0  0  0
 24 23  2  0  0  0  0
 26 23  1  0  0  0  0
 23 22  1  0  0  0  0
 22 21  1  0  0  0  0
 21 19  1  0  0  0  0
 17 16  1  0  0  0  0
 16 18  1  0  0  0  0
 16 14  1  0  0  0  0
 19 20  2  0  0  0  0
 19 18  1  0  0  0  0
 18 12  1  0  0  0  0
 14 15  1  0  0  0  0
 14 13  1  0  0  0  0
 12 13  1  0  0  0  0
 12 10  1  0  0  0  0
 11 10  2  0  0  0  0
 10  5  1  0  0  0  0
  7  6  1  0  0  0  0
  5  6  1  0  0  0  0
  5  4  1  0  0  0  0
  8  6  1  0  0  0  0
  6  9  1  0  0  0  0
  4  2  1  0  0  0  0
  2  3  2  0  0  0  0
  2  1  1  0  0  0  0
M  END
>  <InstanceId>
6GFZ_EXE_C_301

>  <ChemCompId>
EXE

>  <PdbId>
6GFZ

>  <ChainId>
C

>  <ResidueNumber>
301

>  <InsertionCode>


>  <Model>
1

>  <AltIds>


>  <MissingHeavyAtoms>
0

>  <ObservedFormula>
C24 N4 O4 S F

>  <Name>
(2~{R},3~{S},4~{S})-1-[(2~{S})-2-acetamido-3,3-dimethyl-butanoyl]-3-fluoranyl-~{N}-[[4-(4-methyl-1,3-thiazol-5-yl)phenyl]methyl]-4-oxidanyl-pyrrolidine-2-carboxamide

>  <SystematicName>
(2~{R},3~{S},4~{S})-1-[(2~{S})-2-acetamido-3,3-dimethyl-butanoyl]-3-fluoranyl-~{N}-[[4-(4-methyl-1,3-thiazol-5-yl)phenyl]methyl]-4-oxidanyl-pyrrolidine-2-carboxamide

>  <Synonyms>


>  <Type>
NON-POLYMER

>  <Formula>
C24 H31 F N4 O4 S

>  <MolecularWeight>
490.591

>  <ModifiedDate>
2018-07-06

>  <Parent>


>  <OneLetterCode>


>  <SubcomponentList>


>  <AmbiguousFlag>
N

>  <InChI>
InChI=1S/C24H31FN4O4S/c1-13-20(34-12-27-13)16-8-6-15(7-9-16)10-26-22(32)19-18(25)17(31)11-29(19)23(33)21(24(3,4)5)28-14(2)30/h6-9,12,17-19,21,31H,10-11H2,1-5H3,(H,26,32)(H,28,30)/t17-,18+,19-,21+/m0/s1

>  <InChIKey>
MNNVXLLCYGGFOQ-YOUFYPILSA-N

>  <SMILES>
Cc1c(scn1)c2ccc(cc2)CNC(=O)[C@@H]3[C@@H]([C@H](CN3C(=O)[C@H](C(C)(C)C)NC(=O)C)O)F

$$$$
