5KEJ_GTX_A_301
  RCSB PDB08022002023D
Coordinates from PDB:5KEJ:A:301 Model:1 without hydrogens
 26 25  0  0  0  0            999 V2000
  -33.2480    5.9580  -31.4900   N 0  3  0  0  0  0  0  0  0  0  0  0
  -33.8940    5.2370  -32.5840   C 0  0  0  0  0  0  0  0  0  0  0  0
  -33.4200    5.8130  -33.8700   C 0  0  0  0  0  0  0  0  0  0  0  0
  -33.1330    5.0580  -34.7500   O 0  0  0  0  0  0  0  0  0  0  0  0
  -33.3070    7.0110  -34.0120   O 0  0  0  0  0  0  0  0  0  0  0  0
  -35.4100    5.3200  -32.4610   C 0  0  0  0  0  0  0  0  0  0  0  0
  -36.0600    3.9650  -32.6150   C 0  0  0  0  0  0  0  0  0  0  0  0
  -37.5360    4.0140  -32.3590   C 0  0  0  0  0  0  0  0  0  0  0  0
  -37.9440    4.4830  -31.3560   O 0  0  0  0  0  0  0  0  0  0  0  0
  -38.3600    3.5640  -33.2770   N 0  0  0  0  0  0  0  0  0  0  0  0
  -39.7690    3.3870  -33.0240   C 0  0  0  0  0  0  0  0  0  0  0  0
  -40.0490    2.0110  -32.5580   C 0  0  0  0  0  0  0  0  0  0  0  0
  -41.1710    1.5730  -32.5850   O 0  0  0  0  0  0  0  0  0  0  0  0
  -40.6270    3.6230  -34.2570   C 0  0  0  0  0  0  0  0  0  0  0  0
  -41.0760    5.2950  -34.6010   S 0  0  0  0  0  0  0  0  0  0  0  0
  -41.4500    5.9950  -33.0440   C 0  0  0  0  0  0  0  0  0  0  0  0
  -42.6200    6.9760  -33.1520   C 0  0  0  0  0  0  0  0  0  0  0  0
  -43.9650    6.2800  -32.9450   C 0  0  0  0  0  0  0  0  0  0  0  0
  -44.6300    5.8930  -34.2510   C 0  0  0  0  0  0  0  0  0  0  0  0
  -44.4590    4.4310  -34.6430   C 0  0  0  0  0  0  0  0  0  0  0  0
  -44.4530    3.4980  -33.4580   C 0  0  0  0  0  0  0  0  0  0  0  0
  -39.0200    1.3150  -32.1560   N 0  0  0  0  0  0  0  0  0  0  0  0
  -39.1560    0.0250  -31.5930   C 0  0  0  0  0  0  0  0  0  0  0  0
  -39.3490    0.1990  -30.1200   C 0  0  0  0  0  0  0  0  0  0  0  0
  -39.1490   -0.7610  -29.3510   O 0  0  0  0  0  0  0  0  0  0  0  0
  -39.7130    1.3250  -29.7490   O 0  0  0  0  0  0  0  0  0  0  0  0
  1  2  1  0  0  0  0
  2  3  1  0  0  0  0
  2  6  1  0  0  0  0
  3  4  2  0  0  0  0
  3  5  1  0  0  0  0
  6  7  1  0  0  0  0
  7  8  1  0  0  0  0
  8  9  2  0  0  0  0
  8 10  1  0  0  0  0
 10 11  1  0  0  0  0
 11 12  1  0  0  0  0
 11 14  1  0  0  0  0
 12 13  2  0  0  0  0
 12 22  1  0  0  0  0
 14 15  1  0  0  0  0
 15 16  1  0  0  0  0
 16 17  1  0  0  0  0
 17 18  1  0  0  0  0
 18 19  1  0  0  0  0
 19 20  1  0  0  0  0
 20 21  1  0  0  0  0
 22 23  1  0  0  0  0
 23 24  1  0  0  0  0
 24 25  2  0  0  0  0
 24 26  1  0  0  0  0
M  CHG  1   1   1
M  END
>  <InstanceId>
5KEJ_GTX_A_301

>  <ChemCompId>
GTX

>  <PdbId>
5KEJ

>  <ChainId>
A

>  <ResidueNumber>
301

>  <InsertionCode>


>  <Model>
1

>  <AltIds>


>  <MissingHeavyAtoms>
0

>  <ObservedFormula>
C16 N3 O6 S

>  <Name>
S-HEXYLGLUTATHIONE

>  <SystematicName>
[(2S)-5-[[(2R)-1-(carboxymethylamino)-3-hexylsulfanyl-1-oxo-propan-2-yl]amino]-1-hydroxy-1,5-dioxo-pentan-2-yl]azanium

>  <Synonyms>


>  <Type>
NON-POLYMER

>  <Formula>
C16 H30 N3 O6 S

>  <MolecularWeight>
392.491

>  <ModifiedDate>
2011-06-04

>  <Parent>


>  <OneLetterCode>


>  <SubcomponentList>


>  <AmbiguousFlag>
N

>  <InChI>
InChI=1S/C16H29N3O6S/c1-2-3-4-5-8-26-10-12(15(23)18-9-14(21)22)19-13(20)7-6-11(17)16(24)25/h11-12H,2-10,17H2,1H3,(H,18,23)(H,19,20)(H,21,22)(H,24,25)/p+1/t11-,12-/m0/s1

>  <InChIKey>
HXJDWCWJDCOHDG-RYUDHWBXSA-O

>  <SMILES>
CCCCCCSC[C@@H](C(=O)NCC(=O)O)NC(=O)CC[C@@H](C(=O)O)[NH3+]

$$$$
