1YFZ_IMP_A_1210
  RCSB PDB08012016263D
Coordinates from PDB:1YFZ:A:1210 Model:1 without hydrogens
 23 25  0  0  0  0            999 V2000
   42.2720   35.8040   66.6010   P 0  0  0  0  0  0  0  0  0  0  0  0
   41.0280   36.6050   66.4070   O 0  0  0  0  0  0  0  0  0  0  0  0
   43.3340   36.6840   67.1810   O 0  0  0  0  0  0  0  0  0  0  0  0
   42.0260   34.5820   67.5020   O 0  0  0  0  0  0  0  0  0  0  0  0
   42.8330   35.1990   65.2090   O 0  0  0  0  0  0  0  0  0  0  0  0
   42.8680   36.1300   64.0900   C 0  0  0  0  0  0  0  0  0  0  0  0
   43.3950   35.5960   62.7700   C 0  0  0  0  0  0  0  0  0  0  0  0
   43.8470   36.8230   62.0610   O 0  0  0  0  0  0  0  0  0  0  0  0
   44.6330   34.6540   62.7660   C 0  0  0  0  0  0  0  0  0  0  0  0
   44.3640   33.3810   62.1790   O 0  0  0  0  0  0  0  0  0  0  0  0
   45.7210   35.3900   62.0070   C 0  0  0  0  0  0  0  0  0  0  0  0
   46.5460   34.5480   61.2290   O 0  0  0  0  0  0  0  0  0  0  0  0
   44.8940   36.3870   61.2120   C 0  0  0  0  0  0  0  0  0  0  0  0
   45.7140   37.5800   60.7710   N 0  0  0  0  0  0  0  0  0  0  0  0
   46.0520   37.9690   59.4990   C 0  0  0  0  0  0  0  0  0  0  0  0
   46.7730   39.0490   59.4640   N 0  0  0  0  0  0  0  0  0  0  0  0
   46.9440   39.4260   60.7630   C 0  0  0  0  0  0  0  0  0  0  0  0
   47.6490   40.5440   61.3390   C 0  0  0  0  0  0  0  0  0  0  0  0
   48.2740   41.4230   60.7380   O 0  0  0  0  0  0  0  0  0  0  0  0
   47.5880   40.5840   62.7740   N 0  0  0  0  0  0  0  0  0  0  0  0
   46.9020   39.6250   63.5300   C 0  0  0  0  0  0  0  0  0  0  0  0
   46.2400   38.5750   62.9670   N 0  0  0  0  0  0  0  0  0  0  0  0
   46.2940   38.5340   61.6150   C 0  0  0  0  0  0  0  0  0  0  0  0
  1  2  2  0  0  0  0
  1  3  1  0  0  0  0
  1  4  1  0  0  0  0
  1  5  1  0  0  0  0
  5  6  1  0  0  0  0
  6  7  1  0  0  0  0
  7  8  1  0  0  0  0
  7  9  1  0  0  0  0
  8 13  1  0  0  0  0
  9 10  1  0  0  0  0
  9 11  1  0  0  0  0
 11 12  1  0  0  0  0
 11 13  1  0  0  0  0
 13 14  1  0  0  0  0
 14 15  1  0  0  0  0
 14 23  1  0  0  0  0
 15 16  2  0  0  0  0
 16 17  1  0  0  0  0
 17 18  1  0  0  0  0
 17 23  2  0  0  0  0
 18 19  2  0  0  0  0
 18 20  1  0  0  0  0
 20 21  1  0  0  0  0
 21 22  2  0  0  0  0
 22 23  1  0  0  0  0
M  END
>  <InstanceId>
1YFZ_IMP_A_1210

>  <ChemCompId>
IMP

>  <PdbId>
1YFZ

>  <ChainId>
A

>  <ResidueNumber>
1210

>  <InsertionCode>


>  <Model>
1

>  <AltIds>


>  <MissingHeavyAtoms>
0

>  <ObservedFormula>
C10 N4 O8 P

>  <Name>
INOSINIC ACID

>  <SystematicName>
[(2R,3S,4R,5R)-3,4-dihydroxy-5-(6-oxo-1H-purin-9-yl)oxolan-2-yl]methyl dihydrogen phosphate

>  <Synonyms>


>  <Type>
NON-POLYMER

>  <Formula>
C10 H13 N4 O8 P

>  <MolecularWeight>
348.206

>  <ModifiedDate>
2012-01-05

>  <Parent>
G

>  <OneLetterCode>


>  <SubcomponentList>


>  <AmbiguousFlag>
N

>  <InChI>
InChI=1S/C10H13N4O8P/c15-6-4(1-21-23(18,19)20)22-10(7(6)16)14-3-13-5-8(14)11-2-12-9(5)17/h2-4,6-7,10,15-16H,1H2,(H,11,12,17)(H2,18,19,20)/t4-,6-,7-,10-/m1/s1

>  <InChIKey>
GRSZFWQUAKGDAV-KQYNXXCUSA-N

>  <SMILES>
c1nc2c(n1[C@H]3[C@@H]([C@@H]([C@H](O3)COP(=O)(O)O)O)O)N=CNC2=O

$$$$
