2G94_ZPQ_A_1001
  RCSB PDB08012017023D
Coordinates from PDB:2G94:A:1001 Model:1 without hydrogens
 45 45  0  0  0  0            999 V2000
    1.9840   -5.6010   34.5190   C 0  0  0  0  0  0  0  0  0  0  0  0
    2.8960   -4.4190   34.3400   C 0  0  0  0  0  0  0  0  0  0  0  0
    3.1050   -4.3720   32.7670   N 0  0  0  0  0  0  0  0  0  0  0  0
    2.3600   -5.4370   32.2460   N 0  0  0  0  0  0  0  0  0  0  0  0
    1.6920   -6.1680   33.3200   C 0  0  0  0  0  0  0  0  0  0  0  0
    3.5180   -3.4650   35.2730   C 0  0  0  0  0  0  0  0  0  0  0  0
    2.2360   -5.8200   30.8060   C 0  0  0  0  0  0  0  0  0  0  0  0
    0.9210   -5.6910   30.2630   O 0  0  0  0  0  0  0  0  0  0  0  0
    0.3730   -4.4380   30.1400   C 0  0  0  0  0  0  0  0  0  0  0  0
    0.8010   -7.3800   33.1860   C 0  0  0  0  0  0  0  0  0  0  0  0
    0.9980   -3.3940   30.3070   O 0  0  0  0  0  0  0  0  0  0  0  0
   -0.9370   -4.4500   29.8110   N 0  0  0  0  0  0  0  0  0  0  0  0
   -1.8500   -3.3340   29.6050   C 0  0  0  0  0  0  0  0  0  0  0  0
   -2.0480   -3.1530   28.0760   C 0  0  0  0  0  0  0  0  0  0  0  0
   -0.8900   -2.0900   27.2550   S 0  0  0  0  0  0  0  0  0  0  0  0
   -1.5140   -1.6570   26.0290   O 0  0  0  0  0  0  0  0  0  0  0  0
   -0.4950   -1.0130   28.1650   O 0  0  0  0  0  0  0  0  0  0  0  0
    0.4660   -3.1910   26.9130   C 0  0  0  0  0  0  0  0  0  0  0  0
   -3.1140   -3.7990   30.2500   C 0  0  0  0  0  0  0  0  0  0  0  0
   -4.1370   -4.0120   29.6070   O 0  0  0  0  0  0  0  0  0  0  0  0
   -3.0360   -3.9860   31.6190   N 0  0  0  0  0  0  0  0  0  0  0  0
   -4.2220   -4.4770   32.3760   C 0  0  0  0  0  0  0  0  0  0  0  0
   -4.9840   -3.3880   33.1830   C 0  0  0  0  0  0  0  0  0  0  0  0
   -3.7950   -5.6640   33.3040   C 0  0  0  0  0  0  0  0  0  0  0  0
   -3.2620   -6.9030   32.5090   C 0  0  0  0  0  0  0  0  0  0  0  0
   -4.3290   -7.5100   31.5750   C 0  0  0  0  0  0  0  0  0  0  0  0
   -2.8050   -7.9870   33.5000   C 0  0  0  0  0  0  0  0  0  0  0  0
   -5.3600   -2.1940   32.2830   C 0  0  0  0  0  0  0  0  0  0  0  0
   -6.6620   -1.5430   32.7540   C 0  0  0  0  0  0  0  0  0  0  0  0
   -6.7260   -0.1000   32.2390   C 0  0  0  0  0  0  0  0  0  0  0  0
   -7.8780   -2.2990   32.2090   C 0  0  0  0  0  0  0  0  0  0  0  0
   -4.1550   -2.8940   34.2330   O 0  0  0  0  0  0  0  0  0  0  0  0
   -7.9100   -2.7650   31.0800   O 0  0  0  0  0  0  0  0  0  0  0  0
   -8.9360   -2.3980   33.0750   N 0  0  0  0  0  0  0  0  0  0  0  0
  -10.1770   -3.0790   32.6600   C 0  0  0  0  0  0  0  0  0  0  0  0
  -11.0690   -3.4600   33.8710   C 0  0  0  0  0  0  0  0  0  0  0  0
  -12.2430   -4.3610   33.4340   C 0  0  0  0  0  0  0  0  0  0  0  0
  -11.6220   -2.2120   34.5570   C 0  0  0  0  0  0  0  0  0  0  0  0
  -10.8820   -2.1360   31.6360   C 0  0  0  0  0  0  0  0  0  0  0  0
  -10.7850   -0.9330   31.7260   O 0  0  0  0  0  0  0  0  0  0  0  0
  -11.6110   -2.7780   30.6420   N 0  0  0  0  0  0  0  0  0  0  0  0
  -12.3520   -2.0350   29.5950   C 0  0  0  0  0  0  0  0  0  0  0  0
  -11.6910   -2.1750   28.1840   C 0  0  0  0  0  0  0  0  0  0  0  0
  -10.3120   -1.5090   28.1490   C 0  0  0  0  0  0  0  0  0  0  0  0
  -11.5290   -3.6470   27.8150   C 0  0  0  0  0  0  0  0  0  0  0  0
  1  2  1  0  0  0  0
  1  5  2  0  0  0  0
  2  3  2  0  0  0  0
  2  6  1  0  0  0  0
  3  4  1  0  0  0  0
  4  5  1  0  0  0  0
  4  7  1  0  0  0  0
  5 10  1  0  0  0  0
  7  8  1  0  0  0  0
  8  9  1  0  0  0  0
  9 11  2  0  0  0  0
  9 12  1  0  0  0  0
 12 13  1  0  0  0  0
 13 14  1  0  0  0  0
 13 19  1  0  0  0  0
 14 15  1  0  0  0  0
 15 16  2  0  0  0  0
 15 17  2  0  0  0  0
 15 18  1  0  0  0  0
 19 20  2  0  0  0  0
 19 21  1  0  0  0  0
 21 22  1  0  0  0  0
 22 23  1  0  0  0  0
 22 24  1  0  0  0  0
 23 28  1  0  0  0  0
 23 32  1  0  0  0  0
 24 25  1  0  0  0  0
 25 26  1  0  0  0  0
 25 27  1  0  0  0  0
 28 29  1  0  0  0  0
 29 30  1  0  0  0  0
 29 31  1  0  0  0  0
 31 33  2  0  0  0  0
 31 34  1  0  0  0  0
 34 35  1  0  0  0  0
 35 36  1  0  0  0  0
 35 39  1  0  0  0  0
 36 37  1  0  0  0  0
 36 38  1  0  0  0  0
 39 40  2  0  0  0  0
 39 41  1  0  0  0  0
 41 42  1  0  0  0  0
 42 43  1  0  0  0  0
 43 44  1  0  0  0  0
 43 45  1  0  0  0  0
M  END
>  <InstanceId>
2G94_ZPQ_A_1001

>  <ChemCompId>
ZPQ

>  <PdbId>
2G94

>  <ChainId>
A

>  <ResidueNumber>
1001

>  <InsertionCode>


>  <Model>
1

>  <AltIds>


>  <MissingHeavyAtoms>
0

>  <ObservedFormula>
C30 N6 O8 S

>  <Name>
N~2~-[(2R,4S,5S)-5-{[N-{[(3,5-DIMETHYL-1H-PYRAZOL-1-YL)METHOXY]CARBONYL}-3-(METHYLSULFONYL)-L-ALANYL]AMINO}-4-HYDROXY-2,7-DIMETHYLOCTANOYL]-N-ISOBUTYL-L-VALINAMIDE

>  <SystematicName>
(3,5-dimethylpyrazol-1-yl)methyl N-[(2R)-1-[[(4S,5S,7R)-5-hydroxy-2,7-dimethyl-8-[[(2S)-3-methyl-1-(2-methylpropylamino)-1-oxo-butan-2-yl]amino]-8-oxo-octan-4-yl]amino]-3-methylsulfonyl-1-oxo-propan-2-yl]carbamate

>  <Synonyms>


>  <Type>
NON-POLYMER

>  <Formula>
C30 H54 N6 O8 S

>  <MolecularWeight>
658.85

>  <ModifiedDate>
2011-06-04

>  <Parent>


>  <OneLetterCode>


>  <SubcomponentList>


>  <AmbiguousFlag>


>  <InChI>
InChI=1S/C30H54N6O8S/c1-17(2)11-23(25(37)12-20(7)27(38)34-26(19(5)6)29(40)31-14-18(3)4)32-28(39)24(15-45(10,42)43)33-30(41)44-16-36-22(9)13-21(8)35-36/h13,17-20,23-26,37H,11-12,14-16H2,1-10H3,(H,31,40)(H,32,39)(H,33,41)(H,34,38)/t20-,23+,24+,25+,26+/m1/s1

>  <InChIKey>
OFAZWNGNAATRSH-GWCXRDAXSA-N

>  <SMILES>
Cc1cc(n(n1)COC(=O)N[C@@H](CS(=O)(=O)C)C(=O)N[C@@H](CC(C)C)[C@H](C[C@@H](C)C(=O)N[C@@H](C(C)C)C(=O)NCC(C)C)O)C

$$$$
