2J94_G15_A_1245
  RCSB PDB08012017173D
Coordinates from PDB:2J94:A:1245 Model:1 without hydrogens
 31 34  0  0  0  0            999 V2000
    6.2560    4.6970   17.7970   O 0  0  0  0  0  0  0  0  0  0  0  0
    7.0120    3.9640   18.4280   C 0  0  0  0  0  0  0  0  0  0  0  0
    7.8080    3.0650   17.7800   N 0  0  0  0  0  0  0  0  0  0  0  0
    7.6500    2.9310   16.3220   C 0  0  0  0  0  0  0  0  0  0  0  0
    9.0120    3.0320   15.6360   C 0  0  0  0  0  0  0  0  0  0  0  0
    9.8690    2.0580   16.2330   O 0  0  0  0  0  0  0  0  0  0  0  0
   10.1440    2.3450   17.6000   C 0  0  0  0  0  0  0  0  0  0  0  0
    8.8350    2.2120   18.3790   C 0  0  0  0  0  0  0  0  0  0  0  0
    7.0670    4.0890   19.9570   C 0  0  0  0  0  0  0  0  0  0  0  0
    6.5420    2.8280   20.6620   C 0  0  0  0  0  0  0  0  0  0  0  0
    6.3940    5.2930   20.4710   N 0  0  0  0  0  0  0  0  0  0  0  0
    4.9660    5.4720   20.7060   C 0  0  0  0  0  0  0  0  0  0  0  0
    4.8340    6.9920   20.5490   C 0  0  0  0  0  0  0  0  0  0  0  0
    7.1060    6.3800   20.7780   C 0  0  0  0  0  0  0  0  0  0  0  0
    8.3090    6.3840   20.6960   O 0  0  0  0  0  0  0  0  0  0  0  0
    6.1390    7.4760   21.1950   C 0  0  0  0  0  0  0  0  0  0  0  0
    6.4430    8.8810   20.9380   N 0  0  0  0  0  0  0  0  0  0  0  0
    6.3560    9.9130   22.2060   S 0  0  0  0  0  0  0  0  0  0  0  0
    4.9730   10.0270   22.5760   O 0  0  0  0  0  0  0  0  0  0  0  0
    7.1240   11.0420   21.7880   O 0  0  0  0  0  0  0  0  0  0  0  0
    7.1410    9.2320   23.5930   C 0  0  0  0  0  0  0  0  0  0  0  0
    6.4670    8.6010   24.5220   N 0  0  0  0  0  0  0  0  0  0  0  0
    7.3290    8.1310   25.4580   N 0  0  0  0  0  0  0  0  0  0  0  0
    8.4700    9.1720   23.7720   N 0  0  0  0  0  0  0  0  0  0  0  0
    8.5910    8.5160   24.9860   C 0  0  0  0  0  0  0  0  0  0  0  0
    9.8910    8.1930   25.6470   C 0  0  0  0  0  0  0  0  0  0  0  0
    9.9140    7.6310   26.9240   C 0  0  0  0  0  0  0  0  0  0  0  0
   11.2550    7.3910   27.3180   C 0  0  0  0  0  0  0  0  0  0  0  0
   12.1390    7.7990   26.2950   C 0  0  0  0  0  0  0  0  0  0  0  0
   11.4100    8.4400   24.9100   S 0  0  0  0  0  0  0  0  0  0  0  0
   13.8510    7.6210   26.3890  Cl 0  0  0  0  0  0  0  0  0  0  0  0
  1  2  2  0  0  0  0
  2  3  1  0  0  0  0
  2  9  1  0  0  0  0
  3  4  1  0  0  0  0
  3  8  1  0  0  0  0
  4  5  1  0  0  0  0
  5  6  1  0  0  0  0
  6  7  1  0  0  0  0
  7  8  1  0  0  0  0
  9 10  1  0  0  0  0
  9 11  1  0  0  0  0
 11 12  1  0  0  0  0
 11 14  1  0  0  0  0
 12 13  1  0  0  0  0
 13 16  1  0  0  0  0
 14 15  2  0  0  0  0
 14 16  1  0  0  0  0
 16 17  1  0  0  0  0
 17 18  1  0  0  0  0
 18 20  2  0  0  0  0
 18 21  1  0  0  0  0
 18 19  2  0  0  0  0
 21 22  2  0  0  0  0
 21 24  1  0  0  0  0
 22 23  1  0  0  0  0
 23 25  1  0  0  0  0
 24 25  2  0  0  0  0
 25 26  1  0  0  0  0
 26 27  2  0  0  0  0
 26 30  1  0  0  0  0
 27 28  1  0  0  0  0
 28 29  2  0  0  0  0
 29 30  1  0  0  0  0
 29 31  1  0  0  0  0
M  END
>  <InstanceId>
2J94_G15_A_1245

>  <ChemCompId>
G15

>  <PdbId>
2J94

>  <ChainId>
A

>  <ResidueNumber>
1245

>  <InsertionCode>


>  <Model>
1

>  <AltIds>


>  <MissingHeavyAtoms>
0

>  <ObservedFormula>
C17 N6 O5 S2 Cl

>  <Name>
5-(5-CHLORO-2-THIENYL)-N-{(3S)-1-[(1S)-1-METHYL-2-MORPHOLIN-4-YL-2-OXOETHYL]-2-OXOPYRROLIDIN-3-YL}-1H-1,2,4-TRIAZOLE-3-SULFONAMIDE

>  <SystematicName>
5-(5-chlorothiophen-2-yl)-N-[(3S)-1-[(2S)-1-morpholin-4-yl-1-oxo-propan-2-yl]-2-oxo-pyrrolidin-3-yl]-1H-1,2,4-triazole-3-sulfonamide

>  <Synonyms>


>  <Type>
NON-POLYMER

>  <Formula>
C17 H21 Cl N6 O5 S2

>  <MolecularWeight>
488.969

>  <ModifiedDate>
2011-06-04

>  <Parent>


>  <OneLetterCode>


>  <SubcomponentList>


>  <AmbiguousFlag>


>  <InChI>
InChI=1S/C17H21ClN6O5S2/c1-10(15(25)23-6-8-29-9-7-23)24-5-4-11(16(24)26)22-31(27,28)17-19-14(20-21-17)12-2-3-13(18)30-12/h2-3,10-11,22H,4-9H2,1H3,(H,19,20,21)/t10-,11-/m0/s1

>  <InChIKey>
FKCQUVAGEOSYRU-QWRGUYRKSA-N

>  <SMILES>
C[C@@H](C(=O)N1CCOCC1)N2CC[C@@H](C2=O)NS(=O)(=O)c3nc([nH]n3)c4ccc(s4)Cl

$$$$
