3USX_MYR_B_172
  RCSB PDB08012020433D
Coordinates from PDB:3USX:B:172 Model:1 without hydrogens
 16 15  0  0  0  0            999 V2000
  -34.3880  -17.6260  -41.0770   C 0  0  0  0  0  0  0  0  0  0  0  0
  -33.7600  -18.1540  -40.1310   O 0  0  0  0  0  0  0  0  0  0  0  0
  -33.8310  -16.6690  -41.6640   O 0  0  0  0  0  0  0  0  0  0  0  0
  -35.7800  -18.0990  -41.4960   C 0  0  0  0  0  0  0  0  0  0  0  0
  -36.0040  -19.6160  -41.3620   C 0  0  0  0  0  0  0  0  0  0  0  0
  -36.3990  -20.3350  -42.6650   C 0  0  0  0  0  0  0  0  0  0  0  0
  -36.2410  -21.8600  -42.5840   C 0  0  0  0  0  0  0  0  0  0  0  0
  -34.9290  -22.3590  -43.1790   C 0  0  0  0  0  0  0  0  0  0  0  0
  -33.7040  -21.8710  -42.3930   C 0  0  0  0  0  0  0  0  0  0  0  0
  -32.9910  -22.9870  -41.6190   C 0  0  0  0  0  0  0  0  0  0  0  0
  -33.4830  -23.0750  -40.1780   C 0  0  0  0  0  0  0  0  0  0  0  0
  -33.5540  -24.5290  -39.7060   C 0  0  0  0  0  0  0  0  0  0  0  0
  -34.9860  -24.9650  -39.3940   C 0  0  0  0  0  0  0  0  0  0  0  0
  -35.0510  -26.4000  -38.8760   C 0  0  0  0  0  0  0  0  0  0  0  0
  -36.1250  -27.2070  -39.6170   C 0  0  0  0  0  0  0  0  0  0  0  0
  -37.3660  -27.4760  -38.7700   C 0  0  0  0  0  0  0  0  0  0  0  0
  1  2  2  0  0  0  0
  1  3  1  0  0  0  0
  1  4  1  0  0  0  0
  4  5  1  0  0  0  0
  5  6  1  0  0  0  0
  6  7  1  0  0  0  0
  7  8  1  0  0  0  0
  8  9  1  0  0  0  0
  9 10  1  0  0  0  0
 10 11  1  0  0  0  0
 11 12  1  0  0  0  0
 12 13  1  0  0  0  0
 13 14  1  0  0  0  0
 14 15  1  0  0  0  0
 15 16  1  0  0  0  0
M  END
>  <InstanceId>
3USX_MYR_B_172

>  <ChemCompId>
MYR

>  <PdbId>
3USX

>  <ChainId>
B

>  <ResidueNumber>
172

>  <InsertionCode>


>  <Model>
1

>  <AltIds>


>  <MissingHeavyAtoms>
0

>  <ObservedFormula>
C14 O2

>  <Name>
MYRISTIC ACID

>  <SystematicName>
tetradecanoic acid

>  <Synonyms>


>  <Type>
NON-POLYMER

>  <Formula>
C14 H28 O2

>  <MolecularWeight>
228.371

>  <ModifiedDate>
2014-04-23

>  <Parent>


>  <OneLetterCode>


>  <SubcomponentList>


>  <AmbiguousFlag>
N

>  <InChI>
InChI=1S/C14H28O2/c1-2-3-4-5-6-7-8-9-10-11-12-13-14(15)16/h2-13H2,1H3,(H,15,16)

>  <InChIKey>
TUNFSRHWOTWDNC-UHFFFAOYSA-N

>  <SMILES>
CCCCCCCCCCCCCC(=O)O

$$$$
