4EGK_RDC_A_301
  RCSB PDB08012021363D
Coordinates from PDB:4EGK:A:301 Model:1 without hydrogens
 25 27  0  0  0  0            999 V2000
   10.8980   -4.6510   12.3330   C 0  0  0  0  0  0  0  0  0  0  0  0
    9.6170   -5.2340   12.7290   C 0  0  0  0  0  0  0  0  0  0  0  0
    8.4740   -4.3470   12.8230   C 0  0  0  0  0  0  0  0  0  0  0  0
    7.2530   -4.8470   13.2190   C 0  0  0  0  0  0  0  0  0  0  0  0
    7.0540   -6.1740   13.4710   C 0  0  0  0  0  0  0  0  0  0  0  0
    8.1480   -7.0920   13.3400   C 0  0  0  0  0  0  0  0  0  0  0  0
    9.4660   -6.6580   13.0120   C 0  0  0  0  0  0  0  0  0  0  0  0
   10.5340   -7.6940   12.9460   C 0  0  0  0  0  0  0  0  0  0  0  0
   10.7640   -8.6000   14.1420   C 0  0  0  0  0  0  0  0  0  0  0  0
   11.0650   -8.0570   15.4750   C 0  0  0  0  0  0  0  0  0  0  0  0
   11.0670   -6.7990   15.8270   C 0  0  0  0  0  0  0  0  0  0  0  0
   11.4570   -6.3830   17.1620   C 0  0  0  0  0  0  0  0  0  0  0  0
   11.8860   -5.1510   17.4050   C 0  0  0  0  0  0  0  0  0  0  0  0
   11.9620   -4.1170   16.3160   C 0  0  0  0  0  0  0  0  0  0  0  0
   13.3060   -4.1320   15.6500   C 0  0  0  0  0  0  0  0  0  0  0  0
   13.4970   -3.5130   14.2810   C 0  0  0  0  0  0  0  0  0  0  0  0
   13.1610   -4.4550   13.1340   C 0  0  0  0  0  0  0  0  0  0  0  0
   14.0650   -5.6600   13.1240   C 0  0  0  0  0  0  0  0  0  0  0  0
   11.8430   -4.9020   13.3370   O 0  0  0  0  0  0  0  0  0  0  0  0
   11.0890   -4.1030   11.3170   O 0  0  0  0  0  0  0  0  0  0  0  0
    8.6860   -3.0770   12.5250   O 0  0  0  0  0  0  0  0  0  0  0  0
    5.8860   -6.6580   13.8170   O 0  0  0  0  0  0  0  0  0  0  0  0
    7.8160   -8.7690   13.6470  Cl 0  0  0  0  0  0  0  0  0  0  0  0
   10.8400   -9.7440   13.9710   O 0  0  0  0  0  0  0  0  0  0  0  0
   12.9390   -3.1480   16.5840   O 0  0  0  0  0  0  0  0  0  0  0  0
  1  2  1  0  0  0  0
  1 19  1  0  0  0  0
  1 20  2  0  0  0  0
  2  3  2  0  0  0  0
  2  7  1  0  0  0  0
  3  4  1  0  0  0  0
  3 21  1  0  0  0  0
  4  5  2  0  0  0  0
  5  6  1  0  0  0  0
  5 22  1  0  0  0  0
  6  7  2  0  0  0  0
  6 23  1  0  0  0  0
  7  8  1  0  0  0  0
  8  9  1  0  0  0  0
  9 10  1  0  0  0  0
  9 24  2  0  0  0  0
 10 11  2  0  0  0  0
 11 12  1  0  0  0  0
 12 13  2  0  0  0  0
 13 14  1  0  0  0  0
 14 15  1  0  0  0  0
 14 25  1  0  0  0  0
 15 16  1  0  0  0  0
 15 25  1  0  0  0  0
 16 17  1  0  0  0  0
 17 18  1  0  0  0  0
 17 19  1  0  0  0  0
M  END
>  <InstanceId>
4EGK_RDC_A_301

>  <ChemCompId>
RDC

>  <PdbId>
4EGK

>  <ChainId>
A

>  <ResidueNumber>
301

>  <InsertionCode>


>  <Model>
1

>  <AltIds>


>  <MissingHeavyAtoms>
0

>  <ObservedFormula>
C18 O6 Cl

>  <Name>
RADICICOL

>  <SystematicName>


>  <Synonyms>
MONORDEN

>  <Type>
NON-POLYMER

>  <Formula>
C18 H17 Cl O6

>  <MolecularWeight>
364.777

>  <ModifiedDate>
2020-06-17

>  <Parent>


>  <OneLetterCode>


>  <SubcomponentList>


>  <AmbiguousFlag>
N

>  <InChI>
InChI=1S/C18H17ClO6/c1-9-6-15-14(25-15)5-3-2-4-10(20)7-11-16(18(23)24-9)12(21)8-13(22)17(11)19/h2-5,8-9,14-15,21-22H,6-7H2,1H3/b4-2+,5-3-/t9-,14-,15-/m1/s1

>  <InChIKey>
WYZWZEOGROVVHK-GTMNPGAYSA-N

>  <SMILES>
C[C@@H]1C[C@@H]2[C@H](O2)\C=C/C=C/C(=O)Cc3c(c(cc(c3Cl)O)O)C(=O)O1

$$$$
