1WCQ_DAN_A_1651
  RCSB PDB08012016173D
Coordinates from PDB:1WCQ:A:1651 Model:1 without hydrogens
 20 20  0  0  0  0            999 V2000
  -30.6010   54.0230   74.9030   C 0  0  0  0  0  0  0  0  0  0  0  0
  -31.3280   55.1730   75.6770   C 0  0  0  0  0  0  0  0  0  0  0  0
  -31.8500   54.9810   76.9490   C 0  0  0  0  0  0  0  0  0  0  0  0
  -32.4740   56.1990   77.6530   C 0  0  0  0  0  0  0  0  0  0  0  0
  -32.9930   57.2210   76.7160   C 0  0  0  0  0  0  0  0  0  0  0  0
  -31.8610   57.6120   75.7990   C 0  0  0  0  0  0  0  0  0  0  0  0
  -32.2880   58.6000   74.7180   C 0  0  0  0  0  0  0  0  0  0  0  0
  -31.2290   58.7420   73.6870   C 0  0  0  0  0  0  0  0  0  0  0  0
  -31.5760   59.8940   72.7610   C 0  0  0  0  0  0  0  0  0  0  0  0
  -34.6070   58.9970   77.3860   C 0  0  0  0  0  0  0  0  0  0  0  0
  -34.6830   60.3830   78.0660   C 0  0  0  0  0  0  0  0  0  0  0  0
  -33.3070   58.3900   77.5400   N 0  0  0  0  0  0  0  0  0  0  0  0
  -30.4860   52.8850   75.4450   O 0  0  0  0  0  0  0  0  0  0  0  0
  -30.1630   54.2910   73.7670   O 0  0  0  0  0  0  0  0  0  0  0  0
  -33.3870   55.8950   78.7170   O 0  0  0  0  0  0  0  0  0  0  0  0
  -31.4050   56.4270   75.0950   O 0  0  0  0  0  0  0  0  0  0  0  0
  -33.5140   58.2550   74.0030   O 0  0  0  0  0  0  0  0  0  0  0  0
  -29.9620   58.9650   74.3120   O 0  0  0  0  0  0  0  0  0  0  0  0
  -30.4770   59.8680   71.8800   O 0  0  0  0  0  0  0  0  0  0  0  0
  -34.8870   59.0710   76.0200   O 0  0  0  0  0  0  0  0  0  0  0  0
  1  2  1  0  0  0  0
  1 13  2  0  0  0  0
  1 14  1  0  0  0  0
  2  3  2  0  0  0  0
  2 16  1  0  0  0  0
  3  4  1  0  0  0  0
  4  5  1  0  0  0  0
  4 15  1  0  0  0  0
  5  6  1  0  0  0  0
  5 12  1  0  0  0  0
  6  7  1  0  0  0  0
  6 16  1  0  0  0  0
  7  8  1  0  0  0  0
  7 17  1  0  0  0  0
  8  9  1  0  0  0  0
  8 18  1  0  0  0  0
  9 19  1  0  0  0  0
 10 11  1  0  0  0  0
 10 12  1  0  0  0  0
 10 20  2  0  0  0  0
M  END
>  <InstanceId>
1WCQ_DAN_A_1651

>  <ChemCompId>
DAN

>  <PdbId>
1WCQ

>  <ChainId>
A

>  <ResidueNumber>
1651

>  <InsertionCode>


>  <Model>
1

>  <AltIds>


>  <MissingHeavyAtoms>
0

>  <ObservedFormula>
C11 N O8

>  <Name>
2-DEOXY-2,3-DEHYDRO-N-ACETYL-NEURAMINIC ACID

>  <SystematicName>
(4S,5R,6R)-5-acetamido-4-hydroxy-6-[(1R,2R)-1,2,3-trihydroxypropyl]-5,6-dihydro-4H-pyran-2-carboxylic acid

>  <Synonyms>
Neu5Ac2en

>  <Type>
D-saccharide

>  <Formula>
C11 H17 N O8

>  <MolecularWeight>
291.255

>  <ModifiedDate>
2020-07-17

>  <Parent>


>  <OneLetterCode>


>  <SubcomponentList>


>  <AmbiguousFlag>
N

>  <InChI>
InChI=1S/C11H17NO8/c1-4(14)12-8-5(15)2-7(11(18)19)20-10(8)9(17)6(16)3-13/h2,5-6,8-10,13,15-17H,3H2,1H3,(H,12,14)(H,18,19)/t5-,6+,8+,9+,10+/m0/s1

>  <InChIKey>
JINJZWSZQKHCIP-UFGQHTETSA-N

>  <SMILES>
CC(=O)N[C@@H]1[C@H](C=C(O[C@H]1[C@@H]([C@@H](CO)O)O)C(=O)O)O

$$$$
