1C4U_IH1_2_370
  RCSB PDB08012014403D
Coordinates from PDB:1C4U:2:370 Model:1 without hydrogens
 36 39  0  0  0  0            999 V2000
   21.9140  -15.0870   25.5810   C 0  0  0  0  0  0  0  0  0  0  0  0
   21.0480  -14.3190   26.2120   C 0  0  0  0  0  0  0  0  0  0  0  0
   19.8910  -14.9510   26.5140   C 0  0  0  0  0  0  0  0  0  0  0  0
   19.6460  -16.2650   26.1410   C 0  0  0  0  0  0  0  0  0  0  0  0
   20.5030  -16.9760   25.4410   C 0  0  0  0  0  0  0  0  0  0  0  0
   21.6750  -16.3910   25.1330   C 0  0  0  0  0  0  0  0  0  0  0  0
   23.4420  -14.3210   25.1250  Br 0  0  0  0  0  0  0  0  0  0  0  0
   18.1600  -17.1020   26.4320   S 0  0  0  0  0  0  0  0  0  0  0  0
   17.2280  -16.0250   26.7360   O 0  0  0  0  0  0  0  0  0  0  0  0
   18.4440  -17.9820   27.5840   O 0  0  0  0  0  0  0  0  0  0  0  0
   17.6480  -17.9860   25.0220   C 0  0  0  0  0  0  0  0  0  0  0  0
   17.0590  -17.1230   23.8100   C 0  0  0  0  0  0  0  0  0  0  0  0
   18.4770  -13.0140   21.7470   C 0  0  0  0  0  0  0  0  0  0  0  0
   19.7290  -12.8770   21.1120   C 0  0  0  0  0  0  0  0  0  0  0  0
   20.6890  -13.7440   20.8150   C 0  0  0  0  0  0  0  0  0  0  0  0
   20.4550  -15.1580   21.2980   C 0  0  0  0  0  0  0  0  0  0  0  0
   19.0290  -16.4530   22.6890   C 0  0  0  0  0  0  0  0  0  0  0  0
   17.5700  -14.8640   23.0450   C 0  0  0  0  0  0  0  0  0  0  0  0
   19.2900  -15.2970   21.9610   N 0  0  0  0  0  0  0  0  0  0  0  0
   18.5340  -14.2870   22.4350   N 0  0  0  0  0  0  0  0  0  0  0  0
   16.5860  -14.3920   23.3750   O 0  0  0  0  0  0  0  0  0  0  0  0
   19.7750  -17.4080   22.5830   O 0  0  0  0  0  0  0  0  0  0  0  0
   17.8950  -16.2050   23.2180   N 0  0  0  0  0  0  0  0  0  0  0  0
   17.1880  -12.6810   20.7050   C 0  0  0  0  0  0  0  0  0  0  0  0
   17.3750  -12.1980   19.5280   O 0  0  0  0  0  0  0  0  0  0  0  0
   14.8760  -12.1880   20.4480   C 0  0  0  0  0  0  0  0  0  0  0  0
   13.6350  -12.0180   21.1120   C 0  0  0  0  0  0  0  0  0  0  0  0
   13.1260  -10.6710   21.5830   C 0  0  0  0  0  0  0  0  0  0  0  0
   11.9440  -10.7790   22.3690   C 0  0  0  0  0  0  0  0  0  0  0  0
   12.2410  -11.6020   23.7210   C 0  0  0  0  0  0  0  0  0  0  0  0
   12.5930  -12.9820   23.0890   C 0  0  0  0  0  0  0  0  0  0  0  0
   15.8230  -12.4690   20.9900   N 0  0  0  0  0  0  0  0  0  0  0  0
   13.5510  -13.1730   22.1480   C 0  0  0  0  0  0  0  0  0  0  0  0
   10.9750  -11.8100   24.2710   C 0  0  0  0  0  0  0  0  0  0  0  0
   10.3730  -12.9340   24.2100   N 0  0  0  0  0  0  0  0  0  0  0  0
   10.4990  -10.8270   24.9970   N 0  0  0  0  0  0  0  0  0  0  0  0
  1  2  2  0  0  0  0
  1  6  1  0  0  0  0
  1  7  1  0  0  0  0
  2  3  1  0  0  0  0
  3  4  2  0  0  0  0
  4  5  1  0  0  0  0
  4  8  1  0  0  0  0
  5  6  2  0  0  0  0
  8  9  2  0  0  0  0
  8 10  2  0  0  0  0
  8 11  1  0  0  0  0
 11 12  1  0  0  0  0
 12 23  1  0  0  0  0
 13 14  1  0  0  0  0
 13 20  1  0  0  0  0
 13 24  1  0  0  0  0
 14 15  2  0  0  0  0
 15 16  1  0  0  0  0
 16 19  1  0  0  0  0
 17 19  1  0  0  0  0
 17 22  2  0  0  0  0
 17 23  1  0  0  0  0
 18 20  1  0  0  0  0
 18 21  2  0  0  0  0
 18 23  1  0  0  0  0
 19 20  1  0  0  0  0
 24 25  2  0  0  0  0
 24 32  1  0  0  0  0
 26 27  1  0  0  0  0
 26 32  1  0  0  0  0
 27 28  1  0  0  0  0
 27 33  1  0  0  0  0
 28 29  1  0  0  0  0
 29 30  1  0  0  0  0
 30 31  1  0  0  0  0
 30 34  1  0  0  0  0
 31 33  1  0  0  0  0
 34 35  1  0  0  0  0
 34 36  2  0  0  0  0
M  END
>  <InstanceId>
1C4U_IH1_2_370

>  <ChemCompId>
IH1

>  <PdbId>
1C4U

>  <ChainId>
2

>  <ResidueNumber>
370

>  <InsertionCode>


>  <Model>
1

>  <AltIds>


>  <MissingHeavyAtoms>
0

>  <ObservedFormula>
C23 N6 O5 Br S

>  <Name>
2-[2-(4-BROMO-BENZENESULFONYL)-ETHYL]-1-3-DIOXO-2,3,5,8-TETRAHYDRO-1H-[1,2,4]TRIAZOLO[1,2-A]PYRIDAZINE-5-CARBOXYLIC ACID(4-CARBAMIMIDOYL-CYCLOHEXYLMETHYL)-AMIDE

>  <SystematicName>
(8S)-2-[2-(4-bromophenyl)sulfonylethyl]-N-[(4-carbamimidoylcyclohexyl)methyl]-1,3-dioxo-5,8-dihydro-[1,2,4]triazolo[1,2-a]pyridazine-8-carboxamide

>  <Synonyms>


>  <Type>
NON-POLYMER

>  <Formula>
C23 H29 Br N6 O5 S

>  <MolecularWeight>
581.483

>  <ModifiedDate>
2011-06-04

>  <Parent>


>  <OneLetterCode>


>  <SubcomponentList>


>  <AmbiguousFlag>
N

>  <InChI>
InChI=1S/C23H29BrN6O5S/c24-17-7-9-18(10-8-17)36(34,35)13-12-28-22(32)29-11-1-2-19(30(29)23(28)33)21(31)27-14-15-3-5-16(6-4-15)20(25)26/h1-2,7-10,15-16,19H,3-6,11-14H2,(H3,25,26)(H,27,31)/t15-,16-,19-/m0/s1

>  <InChIKey>
CAGDDDRYEVLPOJ-BXWFABGCSA-N

>  <SMILES>
c1cc(ccc1S(=O)(=O)CCN2C(=O)N3CC=C[C@H](N3C2=O)C(=O)NCC4CCC(CC4)C(=N)N)Br

$$$$
