2PK6_O33_B_301
  RCSB PDB08012017443D
Coordinates from PDB:2PK6:B:301 Model:1 without hydrogens
 54 59  0  0  0  0            999 V2000
   15.6860  -26.9940  -12.1950   C 0  0  0  0  0  0  0  0  0  0  0  0
   16.4260  -26.2590  -13.1290   C 0  0  0  0  0  0  0  0  0  0  0  0
   17.6920  -25.8110  -12.7590   C 0  0  0  0  0  0  0  0  0  0  0  0
   18.1800  -26.0730  -11.4690   C 0  0  0  0  0  0  0  0  0  0  0  0
   17.3810  -26.7980  -10.5840   C 0  0  0  0  0  0  0  0  0  0  0  0
   18.4790  -25.1030  -13.6620   C 0  0  0  0  0  0  0  0  0  0  0  0
   19.7420  -24.6320  -13.2880   C 0  0  0  0  0  0  0  0  0  0  0  0
   20.2290  -24.8940  -11.9930   C 0  0  0  0  0  0  0  0  0  0  0  0
   19.4510  -25.6170  -11.0820   C 0  0  0  0  0  0  0  0  0  0  0  0
   18.8150  -24.3370  -15.9260   C 0  0  0  0  0  0  0  0  0  0  0  0
   18.0340  -23.9650  -17.1730   C 0  0  0  0  0  0  0  0  0  0  0  0
   16.1700  -27.2340  -10.9730   N 0  0  0  0  0  0  0  0  0  0  0  0
   17.9720  -24.8750  -14.9170   O 0  0  0  0  0  0  0  0  0  0  0  0
   18.6350  -23.3970  -18.0630   O 0  0  0  0  0  0  0  0  0  0  0  0
   16.7260  -24.2570  -17.2110   N 0  0  0  0  0  0  0  0  0  0  0  0
   15.9530  -23.8890  -18.3860   C 0  0  0  0  0  0  0  0  0  0  0  0
   15.3020  -25.1590  -18.9590   C 0  0  0  0  0  0  0  0  0  0  0  0
   14.8720  -24.8170  -20.6480   S 0  0  0  0  0  0  0  0  0  0  0  0
   16.4100  -25.1930  -21.4310   C 0  0  0  0  0  0  0  0  0  0  0  0
   14.8850  -22.8850  -18.0680   C 0  0  0  0  0  0  0  0  0  0  0  0
   13.6970  -23.2180  -18.0810   O 0  0  0  0  0  0  0  0  0  0  0  0
   12.9240  -19.0080  -18.5910   C 0  0  0  0  0  0  0  0  0  0  0  0
   15.3240  -21.6550  -17.7640   N 0  0  0  0  0  0  0  0  0  0  0  0
   12.8560  -17.9940  -17.9400   O 0  0  0  0  0  0  0  0  0  0  0  0
   14.2200  -19.7600  -18.6590   C 0  0  0  0  0  0  0  0  0  0  0  0
   15.1550  -20.8940  -15.0960   C 0  0  0  0  0  0  0  0  0  0  0  0
   14.8850  -19.8750  -16.1840   C 0  0  0  0  0  0  0  0  0  0  0  0
   15.6760  -22.7400  -13.1320   C 0  0  0  0  0  0  0  0  0  0  0  0
   14.3500  -20.6270  -17.4120   C 0  0  0  0  0  0  0  0  0  0  0  0
   15.3170  -18.8320  -18.7190   O 0  0  0  0  0  0  0  0  0  0  0  0
   16.4800  -21.1440  -14.7330   C 0  0  0  0  0  0  0  0  0  0  0  0
   14.0840  -21.5410  -14.4570   C 0  0  0  0  0  0  0  0  0  0  0  0
   16.7370  -22.0920  -13.7590   C 0  0  0  0  0  0  0  0  0  0  0  0
   14.3480  -22.4880  -13.4600   C 0  0  0  0  0  0  0  0  0  0  0  0
    9.8800  -18.7330  -17.9150   C 0  0  0  0  0  0  0  0  0  0  0  0
   11.8850  -19.5130  -19.2340   N 0  0  0  0  0  0  0  0  0  0  0  0
    9.8570  -19.7290  -17.1390   O 0  0  0  0  0  0  0  0  0  0  0  0
   10.6470  -18.7390  -19.2290   C 0  0  0  0  0  0  0  0  0  0  0  0
    9.7800  -19.3170  -20.3610   C 0  0  0  0  0  0  0  0  0  0  0  0
   11.8660  -20.7700  -19.9840   C 0  0  0  0  0  0  0  0  0  0  0  0
    8.2690  -19.0930  -20.2450   C 0  0  0  0  0  0  0  0  0  0  0  0
   10.2150  -18.6350  -21.6640   C 0  0  0  0  0  0  0  0  0  0  0  0
   10.1810  -21.0640  -20.3530   S 0  0  0  0  0  0  0  0  0  0  0  0
    9.2240  -17.5840  -17.7020   N 0  0  0  0  0  0  0  0  0  0  0  0
    7.7350  -15.4080  -17.7910   O 0  0  0  0  0  0  0  0  0  0  0  0
    8.3460  -17.3970  -16.5450   C 0  0  0  0  0  0  0  0  0  0  0  0
    8.8980  -16.7880  -15.3180   C 0  0  0  0  0  0  0  0  0  0  0  0
   10.1330  -17.0720  -14.7230   C 0  0  0  0  0  0  0  0  0  0  0  0
   10.4680  -16.4100  -13.5350   C 0  0  0  0  0  0  0  0  0  0  0  0
    7.2160  -16.4220  -16.9170   C 0  0  0  0  0  0  0  0  0  0  0  0
    8.0200  -15.9010  -14.7710   C 0  0  0  0  0  0  0  0  0  0  0  0
    8.3320  -15.2140  -13.6010   C 0  0  0  0  0  0  0  0  0  0  0  0
    9.5750  -15.4670  -13.0060   C 0  0  0  0  0  0  0  0  0  0  0  0
    6.7650  -15.7780  -15.6070   C 0  0  0  0  0  0  0  0  0  0  0  0
 11 14  2  0  0  0  0
 11 15  1  0  0  0  0
 11 10  1  0  0  0  0
 16 17  1  0  0  0  0
 16 20  1  0  0  0  0
 16 15  1  0  0  0  0
 20 21  2  0  0  0  0
 20 23  1  0  0  0  0
 29 25  1  0  0  0  0
 29 23  1  0  0  0  0
 29 27  1  0  0  0  0
 25 30  1  0  0  0  0
 25 22  1  0  0  0  0
 22 36  1  0  0  0  0
 22 24  2  0  0  0  0
 27 26  1  0  0  0  0
 26 31  2  0  0  0  0
 26 32  1  0  0  0  0
 31 33  1  0  0  0  0
 28 33  2  0  0  0  0
 28 34  1  0  0  0  0
 34 32  2  0  0  0  0
 40 43  1  0  0  0  0
 40 36  1  0  0  0  0
 38 39  1  0  0  0  0
 38 36  1  0  0  0  0
 38 35  1  0  0  0  0
 41 39  1  0  0  0  0
 42 39  1  0  0  0  0
 17 18  1  0  0  0  0
 10 13  1  0  0  0  0
 19 18  1  0  0  0  0
  4  3  1  0  0  0  0
  4  9  1  0  0  0  0
  4  5  2  0  0  0  0
  3  6  1  0  0  0  0
  3  2  2  0  0  0  0
  5 12  1  0  0  0  0
  1  2  1  0  0  0  0
  1 12  2  0  0  0  0
 46 44  1  0  0  0  0
 46 50  1  0  0  0  0
 46 47  1  0  0  0  0
 37 35  2  0  0  0  0
 35 44  1  0  0  0  0
 47 51  2  0  0  0  0
 47 48  1  0  0  0  0
 48 49  2  0  0  0  0
 49 53  1  0  0  0  0
 53 52  2  0  0  0  0
 52 51  1  0  0  0  0
 51 54  1  0  0  0  0
 54 50  1  0  0  0  0
 50 45  1  0  0  0  0
 39 43  1  0  0  0  0
 13  6  1  0  0  0  0
  6  7  2  0  0  0  0
  7  8  1  0  0  0  0
  8  9  2  0  0  0  0
M  END
>  <InstanceId>
2PK6_O33_B_301

>  <ChemCompId>
O33

>  <PdbId>
2PK6

>  <ChainId>
B

>  <ResidueNumber>
301

>  <InsertionCode>


>  <Model>
1

>  <AltIds>


>  <MissingHeavyAtoms>
0

>  <ObservedFormula>
C40 N5 O7 S2

>  <Name>
(4R)-N-[(1S,2R)-2-hydroxy-2,3-dihydro-1H-inden-1-yl]-3-[(2S,3S)-2-hydroxy-3-({N-[(isoquinolin-5-yloxy)acetyl]-S-methyl- L-cysteinyl}amino)-4-phenylbutanoyl]-5,5-dimethyl-1,3-thiazolidine-4-carboxamide

>  <SystematicName>
(4R)-N-[(1S,2R)-2-hydroxy-2,3-dihydro-1H-inden-1-yl]-3-[(2S,3S)-2-hydroxy-3-[[(2R)-2-(2-isoquinolin-5-yloxyethanoylamino)-3-methylsulfanyl-propanoyl]amino]-4-phenyl-butanoyl]-5,5-dimethyl-1,3-thiazolidine-4-carboxamide

>  <Synonyms>
KNI-10033

>  <Type>
peptide-like

>  <Formula>
C40 H45 N5 O7 S2

>  <MolecularWeight>
771.945

>  <ModifiedDate>
2020-06-17

>  <Parent>


>  <OneLetterCode>


>  <SubcomponentList>
TUC SMC 005 00B 00X

>  <AmbiguousFlag>
N

>  <InChI>
InChI=1S/C40H45N5O7S2/c1-40(2)36(38(50)44-34-28-14-8-7-12-25(28)19-31(34)46)45(23-54-40)39(51)35(48)29(18-24-10-5-4-6-11-24)43-37(49)30(22-53-3)42-33(47)21-52-32-15-9-13-26-20-41-17-16-27(26)32/h4-17,20,29-31,34-36,46,48H,18-19,21-23H2,1-3H3,(H,42,47)(H,43,49)(H,44,50)/t29-,30-,31+,34-,35-,36+/m0/s1

>  <InChIKey>
NLPSIHQYIUXYOW-SHJYOGRKSA-N

>  <SMILES>
CC1([C@H](N(CS1)C(=O)[C@H]([C@H](Cc2ccccc2)NC(=O)[C@H](CSC)NC(=O)COc3cccc4c3ccnc4)O)C(=O)N[C@H]5c6ccccc6C[C@H]5O)C

$$$$
