1LYX_PGA_A_401
  RCSB PDB08012015253D
Coordinates from PDB:1LYX:A:401 Model:1 without hydrogens
  9  8  0  0  0  0            999 V2000
   22.1250   -1.6950    6.1490   P 0  0  0  0  0  0  0  0  0  0  0  0
   21.9220   -2.1910    7.7020   O 0  0  0  0  0  0  0  0  0  0  0  0
   21.8020   -2.9790    5.4330   O 0  0  0  0  0  0  0  0  0  0  0  0
   23.5540   -1.2620    6.0550   O 0  0  0  0  0  0  0  0  0  0  0  0
   21.1010   -0.5970    5.9980   O 0  0  0  0  0  0  0  0  0  0  0  0
   20.6500   -2.2030    8.3650   C 0  0  0  0  0  0  0  0  0  0  0  0
   20.9810   -2.7720    9.6560   C 0  0  0  0  0  0  0  0  0  0  0  0
   22.0980   -2.5820   10.4050   O 0  0  0  0  0  0  0  0  0  0  0  0
   20.1980   -3.6360   10.3390   O 0  0  0  0  0  0  0  0  0  0  0  0
  1  2  1  0  0  0  0
  1  3  2  0  0  0  0
  1  4  1  0  0  0  0
  1  5  1  0  0  0  0
  2  6  1  0  0  0  0
  6  7  1  0  0  0  0
  7  8  2  0  0  0  0
  7  9  1  0  0  0  0
M  END
>  <InstanceId>
1LYX_PGA_A_401

>  <ChemCompId>
PGA

>  <PdbId>
1LYX

>  <ChainId>
A

>  <ResidueNumber>
401

>  <InsertionCode>


>  <Model>
1

>  <AltIds>


>  <MissingHeavyAtoms>
0

>  <ObservedFormula>
C2 O6 P

>  <Name>
2-PHOSPHOGLYCOLIC ACID

>  <SystematicName>
2-phosphonooxyethanoic acid

>  <Synonyms>


>  <Type>
NON-POLYMER

>  <Formula>
C2 H5 O6 P

>  <MolecularWeight>
156.031

>  <ModifiedDate>
2011-06-04

>  <Parent>


>  <OneLetterCode>


>  <SubcomponentList>


>  <AmbiguousFlag>
N

>  <InChI>
InChI=1S/C2H5O6P/c3-2(4)1-8-9(5,6)7/h1H2,(H,3,4)(H2,5,6,7)

>  <InChIKey>
ASCFNMCAHFUBCO-UHFFFAOYSA-N

>  <SMILES>
C(C(=O)O)OP(=O)(O)O

$$$$
