2QRK_AMP_A_500
  RCSB PDB08012017513D
Coordinates from PDB:2QRK:A:500 Model:1 without hydrogens
 23 25  0  0  0  0            999 V2000
   29.8420    4.0540    6.9800   P 0  0  0  0  0  0  0  0  0  0  0  0
   29.9870    5.4360    6.3680   O 0  0  0  0  0  0  0  0  0  0  0  0
   30.0090    2.9770    5.9210   O 0  0  0  0  0  0  0  0  0  0  0  0
   28.6270    3.8520    7.8920   O 0  0  0  0  0  0  0  0  0  0  0  0
   31.1640    3.9620    7.8720   O 0  0  0  0  0  0  0  0  0  0  0  0
   31.5930    2.7450    8.4380   C 0  0  0  0  0  0  0  0  0  0  0  0
   32.4570    3.1390    9.6170   C 0  0  0  0  0  0  0  0  0  0  0  0
   32.7240    1.9210   10.2950   O 0  0  0  0  0  0  0  0  0  0  0  0
   33.7850    3.7790    9.2270   C 0  0  0  0  0  0  0  0  0  0  0  0
   34.1090    4.8530   10.1280   O 0  0  0  0  0  0  0  0  0  0  0  0
   34.7560    2.6210    9.4080   C 0  0  0  0  0  0  0  0  0  0  0  0
   36.1070    3.0170    9.6900   O 0  0  0  0  0  0  0  0  0  0  0  0
   34.1100    1.8940   10.5770   C 0  0  0  0  0  0  0  0  0  0  0  0
   34.5730    0.4950   10.6840   N 0  0  0  0  0  0  0  0  0  0  0  0
   34.8010   -0.3670    9.6580   C 0  0  0  0  0  0  0  0  0  0  0  0
   35.2330   -1.5620   10.1430   N 0  0  0  0  0  0  0  0  0  0  0  0
   35.2760   -1.4480   11.4970   C 0  0  0  0  0  0  0  0  0  0  0  0
   35.6520   -2.3270   12.6220   C 0  0  0  0  0  0  0  0  0  0  0  0
   36.0800   -3.5960   12.3500   N 0  0  0  0  0  0  0  0  0  0  0  0
   35.5690   -1.8190   13.8850   N 0  0  0  0  0  0  0  0  0  0  0  0
   35.1600   -0.5480   14.1470   C 0  0  0  0  0  0  0  0  0  0  0  0
   34.8010    0.3120   13.1580   N 0  0  0  0  0  0  0  0  0  0  0  0
   34.8470   -0.0830   11.8530   C 0  0  0  0  0  0  0  0  0  0  0  0
  1  2  2  0  0  0  0
  1  3  1  0  0  0  0
  1  4  1  0  0  0  0
  1  5  1  0  0  0  0
  5  6  1  0  0  0  0
  6  7  1  0  0  0  0
  7  8  1  0  0  0  0
  7  9  1  0  0  0  0
  8 13  1  0  0  0  0
  9 10  1  0  0  0  0
  9 11  1  0  0  0  0
 11 12  1  0  0  0  0
 11 13  1  0  0  0  0
 13 14  1  0  0  0  0
 14 15  1  0  0  0  0
 14 23  1  0  0  0  0
 15 16  2  0  0  0  0
 16 17  1  0  0  0  0
 17 18  1  0  0  0  0
 17 23  2  0  0  0  0
 18 19  1  0  0  0  0
 18 20  2  0  0  0  0
 20 21  1  0  0  0  0
 21 22  2  0  0  0  0
 22 23  1  0  0  0  0
M  END
>  <InstanceId>
2QRK_AMP_A_500

>  <ChemCompId>
AMP

>  <PdbId>
2QRK

>  <ChainId>
A

>  <ResidueNumber>
500

>  <InsertionCode>


>  <Model>
1

>  <AltIds>


>  <MissingHeavyAtoms>
0

>  <ObservedFormula>
C10 N5 O7 P

>  <Name>
ADENOSINE MONOPHOSPHATE

>  <SystematicName>
[(2R,3S,4R,5R)-5-(6-aminopurin-9-yl)-3,4-bis(oxidanyl)oxolan-2-yl]methyl dihydrogen phosphate

>  <Synonyms>


>  <Type>
NON-POLYMER

>  <Formula>
C10 H14 N5 O7 P

>  <MolecularWeight>
347.221

>  <ModifiedDate>
2011-12-08

>  <Parent>


>  <OneLetterCode>


>  <SubcomponentList>


>  <AmbiguousFlag>
N

>  <InChI>
InChI=1S/C10H14N5O7P/c11-8-5-9(13-2-12-8)15(3-14-5)10-7(17)6(16)4(22-10)1-21-23(18,19)20/h2-4,6-7,10,16-17H,1H2,(H2,11,12,13)(H2,18,19,20)/t4-,6-,7-,10-/m1/s1

>  <InChIKey>
UDMBCSSLTHHNCD-KQYNXXCUSA-N

>  <SMILES>
c1nc(c2c(n1)n(cn2)[C@H]3[C@@H]([C@@H]([C@H](O3)COP(=O)(O)O)O)O)N

$$$$
