3S6T_OAN_A_1
  RCSB PDB08012020263D
Coordinates from PDB:3S6T:A:1 Model:1 without hydrogens
 25 26  0  0  0  0            999 V2000
   40.5970   -5.3000    9.5820   C 0  0  0  0  0  0  0  0  0  0  0  0
   40.5330   -4.0850   10.5060   C 0  0  0  0  0  0  0  0  0  0  0  0
   40.4970   -4.2380   11.7260   O 0  0  0  0  0  0  0  0  0  0  0  0
   40.5070   -2.8900    9.8720   N 0  0  0  0  0  0  0  0  0  0  0  0
   40.4950   -1.5640   10.5380   C 0  0  0  0  0  0  0  0  0  0  0  0
   41.9560   -1.2370   10.9730   C 0  0  0  0  0  0  0  0  0  0  0  0
   42.6720   -0.5540    9.9190   O 0  0  0  0  0  0  0  0  0  0  0  0
   41.9850   -0.4150   12.2420   C 0  0  0  0  0  0  0  0  0  0  0  0
   43.3470   -0.1930   12.5980   O 0  0  0  0  0  0  0  0  0  0  0  0
   41.2650   -1.2310   13.3150   C 0  0  0  0  0  0  0  0  0  0  0  0
   41.2730   -0.5150   14.6680   C 0  0  0  0  0  0  0  0  0  0  0  0
   40.6540   -1.3530   15.6530   O 0  0  0  0  0  0  0  0  0  0  0  0
   39.8820   -1.4520   12.9270   O 0  0  0  0  0  0  0  0  0  0  0  0
   39.5310   -1.4570   11.5940   C 0  0  0  0  0  0  0  0  0  0  0  0
   38.2480   -1.3500   11.2680   N 0  0  0  0  0  0  0  0  0  0  0  0
   37.2750   -1.2090   12.4880   O 0  0  0  0  0  0  0  0  0  0  0  0
   35.9580   -1.0590   12.1510   C 0  0  0  0  0  0  0  0  0  0  0  0
   35.6490   -0.5530   11.0690   O 0  0  0  0  0  0  0  0  0  0  0  0
   35.0210   -1.4590   13.0430   N 0  0  0  0  0  0  0  0  0  0  0  0
   33.7020   -1.3900   12.7840   C 0  0  0  0  0  0  0  0  0  0  0  0
   33.0510   -0.1780   12.5160   C 0  0  0  0  0  0  0  0  0  0  0  0
   31.6760   -0.1620   12.2630   C 0  0  0  0  0  0  0  0  0  0  0  0
   30.9430   -1.3520   12.2870   C 0  0  0  0  0  0  0  0  0  0  0  0
   31.5820   -2.5640   12.5630   C 0  0  0  0  0  0  0  0  0  0  0  0
   32.9580   -2.5770   12.8130   C 0  0  0  0  0  0  0  0  0  0  0  0
  1  2  1  0  0  0  0
  2  3  2  0  0  0  0
  2  4  1  0  0  0  0
  4  5  1  0  0  0  0
  5  6  1  0  0  0  0
  5 14  1  0  0  0  0
  6  7  1  0  0  0  0
  6  8  1  0  0  0  0
  8  9  1  0  0  0  0
  8 10  1  0  0  0  0
 10 11  1  0  0  0  0
 10 13  1  0  0  0  0
 11 12  1  0  0  0  0
 13 14  1  0  0  0  0
 14 15  2  0  0  0  0
 15 16  1  0  0  0  0
 16 17  1  0  0  0  0
 17 18  2  0  0  0  0
 17 19  1  0  0  0  0
 19 20  1  0  0  0  0
 20 21  2  0  0  0  0
 20 25  1  0  0  0  0
 21 22  1  0  0  0  0
 22 23  2  0  0  0  0
 23 24  1  0  0  0  0
 24 25  2  0  0  0  0
M  END
>  <InstanceId>
3S6T_OAN_A_1

>  <ChemCompId>
OAN

>  <PdbId>
3S6T

>  <ChainId>
A

>  <ResidueNumber>
1

>  <InsertionCode>


>  <Model>
1

>  <AltIds>


>  <MissingHeavyAtoms>
0

>  <ObservedFormula>
C15 N3 O7

>  <Name>
O-(2-ACETAMIDO-2-DEOXY D-GLUCOPYRANOSYLIDENE) AMINO-N-PHENYLCARBAMATE

>  <SystematicName>
[(Z)-[(3R,4R,5S,6R)-3-acetamido-6-(hydroxymethyl)-4,5-bis(oxidanyl)oxan-2-ylidene]amino] N-phenylcarbamate

>  <Synonyms>
PUGNAc

>  <Type>
NON-POLYMER

>  <Formula>
C15 H19 N3 O7

>  <MolecularWeight>
353.327

>  <ModifiedDate>
2011-08-15

>  <Parent>


>  <OneLetterCode>


>  <SubcomponentList>


>  <AmbiguousFlag>
N

>  <InChI>
InChI=1S/C15H19N3O7/c1-8(20)16-11-13(22)12(21)10(7-19)24-14(11)18-25-15(23)17-9-5-3-2-4-6-9/h2-6,10-13,19,21-22H,7H2,1H3,(H,16,20)(H,17,23)/b18-14-/t10-,11-,12-,13-/m1/s1

>  <InChIKey>
PBLNJFVQMUMOJY-JXZOILRNSA-N

>  <SMILES>
CC(=O)N[C@@H]\1[C@H]([C@@H]([C@H](O/C1=N\OC(=O)Nc2ccccc2)CO)O)O

$$$$
