6EUX_BYB_A_601
  RCSB PDB08022004343D
Coordinates from PDB:6EUX:A:601 Model:1 without hydrogens
 29 33  0  0  0  0            999 V2000
   25.3040  -25.0060   -5.4100   C 0  0  0  0  0  0  0  0  0  0  0  0
   26.5850  -24.6990   -4.9500   C 0  0  0  0  0  0  0  0  0  0  0  0
   24.7340  -24.1970   -6.3760   C 0  0  0  0  0  0  0  0  0  0  0  0
   25.4660  -23.0960   -6.8560   C 0  0  0  0  0  0  0  0  0  0  0  0
   26.7500  -22.8400   -6.3370   C 0  0  0  0  0  0  0  0  0  0  0  0
   27.2560  -23.6460   -5.3990   N 0  0  0  0  0  0  0  0  0  0  0  0
   27.2210  -21.7240   -6.9790   N 0  0  0  0  0  0  0  0  0  0  0  0
   26.2680  -21.2720   -7.8970   N 0  0  0  0  0  0  0  0  0  0  0  0
   25.2020  -22.0480   -7.8450   C 0  0  0  0  0  0  0  0  0  0  0  0
   23.9900  -21.9380   -8.6860   C 0  0  0  0  0  0  0  0  0  0  0  0
   23.0120  -22.8480   -8.5570   N 0  0  0  0  0  0  0  0  0  0  0  0
   21.9170  -22.8130   -9.3240   C 0  0  0  0  0  0  0  0  0  0  0  0
   21.8160  -21.7920  -10.2860   C 0  0  0  0  0  0  0  0  0  0  0  0
   22.8550  -20.8690  -10.4030   C 0  0  0  0  0  0  0  0  0  0  0  0
   23.9200  -20.9750   -9.6060   N 0  0  0  0  0  0  0  0  0  0  0  0
   20.8860  -23.7470   -9.1980   N 0  0  0  0  0  0  0  0  0  0  0  0
   21.0000  -24.9090   -8.3020   C 0  0  0  0  0  0  0  0  0  0  0  0
   20.3750  -24.6020   -6.9130   C 0  0  0  0  0  0  0  0  0  0  0  0
   18.8310  -24.4830   -7.0090   C 0  0  0  0  0  0  0  0  0  0  0  0
   18.2390  -25.7780   -7.6130   C 0  0  0  0  0  0  0  0  0  0  0  0
   19.3840  -26.7850   -7.8590   C 0  0  0  0  0  0  0  0  0  0  0  0
   20.3440  -26.1800   -8.9150   C 0  0  0  0  0  0  0  0  0  0  0  0
   24.6160  -26.0800   -4.9400   F 0  0  0  0  0  0  0  0  0  0  0  0
   20.7220  -21.7210  -11.0750   F 0  0  0  0  0  0  0  0  0  0  0  0
   21.3500  -27.2200   -9.3880   C 0  0  0  0  0  0  0  0  0  0  0  0
   20.9170  -28.3090  -10.0400   O 0  0  0  0  0  0  0  0  0  0  0  0
   22.5420  -27.1070   -9.1960   O 0  0  0  0  0  0  0  0  0  0  0  0
   20.7420  -25.7690   -5.9630   C 0  0  0  0  0  0  0  0  0  0  0  0
   20.1230  -27.0780   -6.5210   C 0  0  0  0  0  0  0  0  0  0  0  0
  8  7  1  0  0  0  0
  8  9  2  0  0  0  0
 15 14  2  0  0  0  0
 15 10  1  0  0  0  0
 14 13  1  0  0  0  0
  7  5  1  0  0  0  0
  9 10  1  0  0  0  0
  9  4  1  0  0  0  0
 10 11  2  0  0  0  0
 13 24  1  0  0  0  0
 13 12  2  0  0  0  0
  5  4  2  0  0  0  0
  5  6  1  0  0  0  0
  4  3  1  0  0  0  0
  6  2  2  0  0  0  0
 11 12  1  0  0  0  0
 12 16  1  0  0  0  0
  2  1  1  0  0  0  0
  3  1  2  0  0  0  0
 16 17  1  0  0  0  0
  1 23  1  0  0  0  0
 17 18  1  0  0  0  0
 17 22  1  0  0  0  0
 26 25  2  0  0  0  0
 25 22  1  0  0  0  0
 25 27  1  0  0  0  0
 18 19  1  0  0  0  0
 18 28  1  0  0  0  0
 22 21  1  0  0  0  0
 19 20  1  0  0  0  0
 28 29  1  0  0  0  0
 21 20  1  0  0  0  0
 21 29  1  0  0  0  0
M  END
>  <InstanceId>
6EUX_BYB_A_601

>  <ChemCompId>
BYB

>  <PdbId>
6EUX

>  <ChainId>
A

>  <ResidueNumber>
601

>  <InsertionCode>


>  <Model>
1

>  <AltIds>


>  <MissingHeavyAtoms>
0

>  <ObservedFormula>
C19 N6 O2 F2

>  <Name>
(2~{S},3~{S})-3-[[5-fluoranyl-2-(5-fluoranyl-1~{H}-pyrazolo[3,4-b]pyridin-3-yl)pyrimidin-4-yl]amino]bicyclo[2.2.2]octane-2-carboxylic acid

>  <SystematicName>
(2~{S},3~{S})-3-[[5-fluoranyl-2-(5-fluoranyl-1~{H}-pyrazolo[3,4-b]pyridin-3-yl)pyrimidin-4-yl]amino]bicyclo[2.2.2]octane-2-carboxylic acid

>  <Synonyms>


>  <Type>
NON-POLYMER

>  <Formula>
C19 H18 F2 N6 O2

>  <MolecularWeight>
400.382

>  <ModifiedDate>
2017-12-08

>  <Parent>


>  <OneLetterCode>


>  <SubcomponentList>


>  <AmbiguousFlag>
N

>  <InChI>
InChI=1S/C19H18F2N6O2/c20-10-5-11-15(26-27-16(11)22-6-10)18-23-7-12(21)17(25-18)24-14-9-3-1-8(2-4-9)13(14)19(28)29/h5-9,13-14H,1-4H2,(H,28,29)(H,22,26,27)(H,23,24,25)/t8-,9+,13-,14-/m0/s1

>  <InChIKey>
YCNZDZZTLLGBPM-WAYYCVMKSA-N

>  <SMILES>
c1c(cnc2c1c(n[nH]2)c3ncc(c(n3)N[C@@H]4[C@H](C5CCC4CC5)C(=O)O)F)F

$$$$
