2ON6_IMH_A_300
  RCSB PDB08012017393D
Coordinates from PDB:2ON6:A:300 Model:1 without hydrogens
 19 21  0  0  0  0            999 V2000
   11.8990   15.7990   61.6140   O 0  0  0  0  0  0  0  0  0  0  0  0
   11.0290   14.9850   60.8250   C 0  0  0  0  0  0  0  0  0  0  0  0
   11.5770   13.5810   60.7170   C 0  0  0  0  0  0  0  0  0  0  0  0
   11.7040   13.1300   59.3210   N 0  0  0  0  0  0  0  0  0  0  0  0
   12.9960   13.5380   61.2970   C 0  0  0  0  0  0  0  0  0  0  0  0
   13.0530   13.0910   62.6700   O 0  0  0  0  0  0  0  0  0  0  0  0
   13.8320   12.7190   60.2760   C 0  0  0  0  0  0  0  0  0  0  0  0
   14.7220   11.7240   60.8560   O 0  0  0  0  0  0  0  0  0  0  0  0
   12.8400   12.2090   59.1820   C 0  0  0  0  0  0  0  0  0  0  0  0
   13.5460   11.8920   57.8740   C 0  0  0  0  0  0  0  0  0  0  0  0
   14.5140   12.6510   57.2000   C 0  0  0  0  0  0  0  0  0  0  0  0
   14.9500   11.9320   56.0930   N 0  0  0  0  0  0  0  0  0  0  0  0
   14.3450   10.7150   56.0180   C 0  0  0  0  0  0  0  0  0  0  0  0
   14.3540    9.5200   55.1430   C 0  0  0  0  0  0  0  0  0  0  0  0
   15.1470    9.4410   54.0480   O 0  0  0  0  0  0  0  0  0  0  0  0
   13.5340    8.4750   55.4520   N 0  0  0  0  0  0  0  0  0  0  0  0
   12.7090    8.4630   56.5240   C 0  0  0  0  0  0  0  0  0  0  0  0
   12.6340    9.5040   57.3650   N 0  0  0  0  0  0  0  0  0  0  0  0
   13.4170   10.5970   57.1610   C 0  0  0  0  0  0  0  0  0  0  0  0
  1  2  1  0  0  0  0
  2  3  1  0  0  0  0
  3  4  1  0  0  0  0
  3  5  1  0  0  0  0
  4  9  1  0  0  0  0
  5  6  1  0  0  0  0
  5  7  1  0  0  0  0
  7  8  1  0  0  0  0
  7  9  1  0  0  0  0
  9 10  1  0  0  0  0
 10 11  2  0  0  0  0
 10 19  1  0  0  0  0
 11 12  1  0  0  0  0
 12 13  1  0  0  0  0
 13 14  1  0  0  0  0
 13 19  2  0  0  0  0
 14 15  1  0  0  0  0
 14 16  2  0  0  0  0
 16 17  1  0  0  0  0
 17 18  2  0  0  0  0
 18 19  1  0  0  0  0
M  END
>  <InstanceId>
2ON6_IMH_A_300

>  <ChemCompId>
IMH

>  <PdbId>
2ON6

>  <ChainId>
A

>  <ResidueNumber>
300

>  <InsertionCode>


>  <Model>
1

>  <AltIds>


>  <MissingHeavyAtoms>
0

>  <ObservedFormula>
C11 N4 O4

>  <Name>
1,4-DIDEOXY-4-AZA-1-(S)-(9-DEAZAHYPOXANTHIN-9-YL)-D-RIBITOL

>  <SystematicName>
(2R,3R,4S,5S)-2-(hydroxymethyl)-5-(4-hydroxy-5H-pyrrolo[5,4-e]pyrimidin-7-yl)pyrrolidine-3,4-diol

>  <Synonyms>


>  <Type>
NON-POLYMER

>  <Formula>
C11 H14 N4 O4

>  <MolecularWeight>
266.253

>  <ModifiedDate>
2011-06-04

>  <Parent>


>  <OneLetterCode>


>  <SubcomponentList>


>  <AmbiguousFlag>
N

>  <InChI>
InChI=1S/C11H14N4O4/c16-2-5-9(17)10(18)7(15-5)4-1-12-8-6(4)13-3-14-11(8)19/h1,3,5,7,9-10,12,15-18H,2H2,(H,13,14,19)/t5-,7+,9-,10+/m1/s1

>  <InChIKey>
IWKXDMQDITUYRK-KUBHLMPHSA-N

>  <SMILES>
c1c(c2c([nH]1)c(ncn2)O)[C@H]3[C@@H]([C@@H]([C@H](N3)CO)O)O

$$$$
