5JQ5_I74_A_302
  RCSB PDB08022001573D
Coordinates from PDB:5JQ5:A:302 Model:1 without hydrogens
 29 32  0  0  0  0            999 V2000
    0.2680  -11.2240  -24.7900   O 0  0  0  0  0  0  0  0  0  0  0  0
   -0.8390  -10.3830  -24.5500   C 0  0  0  0  0  0  0  0  0  0  0  0
   -0.6800   -9.7690  -23.1590   C 0  0  0  0  0  0  0  0  0  0  0  0
   -1.5670   -8.6010  -23.0700   N 0  0  0  0  0  0  0  0  0  0  0  0
   -1.4990   -7.5600  -24.0730   C 0  0  0  0  0  0  0  0  0  0  0  0
   -1.5270   -8.0470  -25.5270   C 0  0  0  0  0  0  0  0  0  0  0  0
   -0.7070   -9.3540  -25.6580   C 0  0  0  0  0  0  0  0  0  0  0  0
   -0.8260   -9.9410  -27.0550   C 0  0  0  0  0  0  0  0  0  0  0  0
    0.4970   -9.7550  -27.6230   N 0  0  0  0  0  0  0  0  0  0  0  0
    0.9460   -8.5600  -28.1540   C 0  0  0  0  0  0  0  0  0  0  0  0
    2.2050   -8.4690  -28.7810   C 0  0  0  0  0  0  0  0  0  0  0  0
    2.6010   -7.2160  -29.3140   C 0  0  0  0  0  0  0  0  0  0  0  0
    1.7230   -6.1660  -29.2550   N 0  0  0  0  0  0  0  0  0  0  0  0
    1.9790   -4.8730  -29.6900   N 0  0  0  0  0  0  0  0  0  0  0  0
    0.8900   -4.1330  -29.3280   C 0  0  0  0  0  0  0  0  0  0  0  0
   -0.0060   -5.0130  -28.6980   C 0  0  0  0  0  0  0  0  0  0  0  0
   -1.3370   -4.5360  -28.1640   C 0  0  0  0  0  0  0  0  0  0  0  0
   -2.5370   -5.4560  -28.4440   C 0  0  0  0  0  0  0  0  0  0  0  0
   -1.2940   -4.4060  -26.6170   C 0  0  0  0  0  0  0  0  0  0  0  0
    0.5750   -6.2890  -28.6280   C 0  0  0  0  0  0  0  0  0  0  0  0
    0.1420   -7.4640  -28.1030   N 0  0  0  0  0  0  0  0  0  0  0  0
    3.7740   -7.0460  -29.9140   N 0  0  0  0  0  0  0  0  0  0  0  0
    4.9130   -7.8980  -29.5650   C 0  0  0  0  0  0  0  0  0  0  0  0
    5.0170   -8.9480  -30.6350   C 0  0  0  0  0  0  0  0  0  0  0  0
    4.9420  -10.2850  -30.2710   C 0  0  0  0  0  0  0  0  0  0  0  0
    5.0260  -11.2410  -31.2690   C 0  0  0  0  0  0  0  0  0  0  0  0
    5.1900  -10.8780  -32.6250   C 0  0  0  0  0  0  0  0  0  0  0  0
    5.2500   -9.5260  -32.9960   C 0  0  0  0  0  0  0  0  0  0  0  0
    5.1770   -8.5720  -31.9820   C 0  0  0  0  0  0  0  0  0  0  0  0
 28 27  2  0  0  0  0
 28 29  1  0  0  0  0
 27 26  1  0  0  0  0
 29 24  2  0  0  0  0
 26 25  2  0  0  0  0
 24 25  1  0  0  0  0
 24 23  1  0  0  0  0
 22 23  1  0  0  0  0
 22 12  1  0  0  0  0
 14 15  2  0  0  0  0
 14 13  1  0  0  0  0
 15 16  1  0  0  0  0
 12 13  1  0  0  0  0
 12 11  2  0  0  0  0
 13 20  1  0  0  0  0
 11 10  1  0  0  0  0
 16 20  2  0  0  0  0
 16 17  1  0  0  0  0
 20 21  1  0  0  0  0
 18 17  1  0  0  0  0
 17 19  1  0  0  0  0
 10 21  2  0  0  0  0
 10  9  1  0  0  0  0
  9  8  1  0  0  0  0
  8  7  1  0  0  0  0
  7  6  1  0  0  0  0
  7  2  1  0  0  0  0
  6  5  1  0  0  0  0
  1  2  1  0  0  0  0
  2  3  1  0  0  0  0
  5  4  1  0  0  0  0
  3  4  1  0  0  0  0
M  END
>  <InstanceId>
5JQ5_I74_A_302

>  <ChemCompId>
I74

>  <PdbId>
5JQ5

>  <ChainId>
A

>  <ResidueNumber>
302

>  <InsertionCode>


>  <Model>
1

>  <AltIds>


>  <MissingHeavyAtoms>
0

>  <ObservedFormula>
C22 N6 O

>  <Name>
(3R,4R)-4-[[[7-[(phenylmethyl)amino]-3-propan-2-yl-pyrazolo[1,5-a]pyrimidin-5-yl]amino]methyl]piperidin-3-ol

>  <SystematicName>
(3R,4R)-4-[[[7-[(phenylmethyl)amino]-3-propan-2-yl-pyrazolo[1,5-a]pyrimidin-5-yl]amino]methyl]piperidin-3-ol

>  <Synonyms>


>  <Type>
NON-POLYMER

>  <Formula>
C22 H30 N6 O

>  <MolecularWeight>
394.513

>  <ModifiedDate>
2017-02-03

>  <Parent>


>  <OneLetterCode>


>  <SubcomponentList>


>  <AmbiguousFlag>
N

>  <InChI>
InChI=1S/C22H30N6O/c1-15(2)18-13-26-28-21(25-11-16-6-4-3-5-7-16)10-20(27-22(18)28)24-12-17-8-9-23-14-19(17)29/h3-7,10,13,15,17,19,23,25,29H,8-9,11-12,14H2,1-2H3,(H,24,27)/t17-,19+/m1/s1

>  <InChIKey>
YCVGLKWJKIKVBI-MJGOQNOKSA-N

>  <SMILES>
CC(C)c1cnn2c1nc(cc2NCc3ccccc3)NC[C@H]4CCNC[C@@H]4O

$$$$
