5XVG_8FX_A_601
  RCSB PDB08022003403D
Coordinates from PDB:5XVG:A:601 Model:1 without hydrogens
 29 33  0  0  0  0            999 V2000
   -7.0130  -12.2510   18.9350   C 0  0  0  0  0  0  0  0  0  0  0  0
   -7.0720  -13.6400   18.4720   C 0  0  0  0  0  0  0  0  0  0  0  0
   -6.2710  -14.0760   17.3320   C 0  0  0  0  0  0  0  0  0  0  0  0
   -5.4440  -13.1590   16.6890   N 0  0  0  0  0  0  0  0  0  0  0  0
   -6.2290  -11.3950   18.3100   N 0  0  0  0  0  0  0  0  0  0  0  0
   -5.4140  -11.8640   17.1370   C 0  0  0  0  0  0  0  0  0  0  0  0
   -7.8840  -14.5390   19.0910   C 0  0  0  0  0  0  0  0  0  0  0  0
   -7.9180  -15.9580   18.5990   C 0  0  0  0  0  0  0  0  0  0  0  0
   -7.1950  -16.3610   17.5590   C 0  0  0  0  0  0  0  0  0  0  0  0
   -6.3060  -15.3640   16.8720   C 0  0  0  0  0  0  0  0  0  0  0  0
   -7.6670  -10.4750   20.6300   C 0  0  0  0  0  0  0  0  0  0  0  0
   -6.9510   -9.3240   20.1800   C 0  0  0  0  0  0  0  0  0  0  0  0
   -7.1710   -8.3010   21.0890   C 0  0  0  0  0  0  0  0  0  0  0  0
   -6.5690   -6.7370   21.0710   C 0  0  0  0  0  0  0  0  0  0  0  0
   -4.5030  -10.8850   16.4490   C 0  0  0  0  0  0  0  0  0  0  0  0
   -4.1360   -8.9020   15.0590   C 0  0  0  0  0  0  0  0  0  0  0  0
   -4.5990   -7.4680   15.2330   C 0  0  0  0  0  0  0  0  0  0  0  0
   -6.7980   -8.1610   15.7840   C 0  0  0  0  0  0  0  0  0  0  0  0
   -6.4800   -9.6440   15.5820   C 0  0  0  0  0  0  0  0  0  0  0  0
   -3.7630   -6.5890   14.3220   C 0  0  0  0  0  0  0  0  0  0  0  0
   -6.4790   -6.2110   19.8410   C 0  0  0  0  0  0  0  0  0  0  0  0
   -5.2540   -6.7160   21.3300   C 0  0  0  0  0  0  0  0  0  0  0  0
   -7.7900  -11.7960   20.0450   N 0  0  0  0  0  0  0  0  0  0  0  0
   -8.0170   -8.7970   22.0800   N 0  0  0  0  0  0  0  0  0  0  0  0
   -8.3080  -10.1320   21.7920   N 0  0  0  0  0  0  0  0  0  0  0  0
   -5.0520   -9.8100   15.6910   N 0  0  0  0  0  0  0  0  0  0  0  0
   -5.9870   -7.3440   14.9070   N 0  0  0  0  0  0  0  0  0  0  0  0
   -3.3040  -11.0350   16.5530   O 0  0  0  0  0  0  0  0  0  0  0  0
   -8.9530  -17.0720   19.4190  Cl 0  0  0  0  0  0  0  0  0  0  0  0
 20 17  1  0  0  0  0
 27 17  1  0  0  0  0
 27 18  1  0  0  0  0
 16 17  1  0  0  0  0
 16 26  1  0  0  0  0
 19 26  1  0  0  0  0
 19 18  1  0  0  0  0
 26 15  1  0  0  0  0
 15 28  2  0  0  0  0
 15  6  1  0  0  0  0
  4  6  2  0  0  0  0
  4  3  1  0  0  0  0
 10  3  2  0  0  0  0
 10  9  1  0  0  0  0
  6  5  1  0  0  0  0
  3  2  1  0  0  0  0
  9  8  2  0  0  0  0
  5  1  2  0  0  0  0
  2  1  1  0  0  0  0
  2  7  2  0  0  0  0
  8  7  1  0  0  0  0
  8 29  1  0  0  0  0
  1 23  1  0  0  0  0
 21 14  1  0  0  0  0
 23 11  1  0  0  0  0
 12 11  1  0  0  0  0
 12 13  2  0  0  0  0
 11 25  2  0  0  0  0
 14 13  1  0  0  0  0
 14 22  1  0  0  0  0
 13 24  1  0  0  0  0
 25 24  1  0  0  0  0
 21 22  1  0  0  0  0
M  END
>  <InstanceId>
5XVG_8FX_A_601

>  <ChemCompId>
8FX

>  <PdbId>
5XVG

>  <ChainId>
A

>  <ResidueNumber>
601

>  <InsertionCode>


>  <Model>
1

>  <AltIds>


>  <MissingHeavyAtoms>
0

>  <ObservedFormula>
C20 N7 O Cl

>  <Name>
[6-chloranyl-4-[(5-cyclopropyl-1H-pyrazol-3-yl)amino]quinazolin-2-yl]-[(3R)-3-methylpiperazin-1-yl]methanone

>  <SystematicName>
[6-chloranyl-4-[(5-cyclopropyl-1~{H}-pyrazol-3-yl)amino]quinazolin-2-yl]-[(3~{R})-3-methylpiperazin-1-yl]methanone

>  <Synonyms>


>  <Type>
NON-POLYMER

>  <Formula>
C20 H22 Cl N7 O

>  <MolecularWeight>
411.888

>  <ModifiedDate>
2018-02-02

>  <Parent>


>  <OneLetterCode>


>  <SubcomponentList>


>  <AmbiguousFlag>
N

>  <InChI>
InChI=1S/C20H22ClN7O/c1-11-10-28(7-6-22-11)20(29)19-23-15-5-4-13(21)8-14(15)18(25-19)24-17-9-16(26-27-17)12-2-3-12/h4-5,8-9,11-12,22H,2-3,6-7,10H2,1H3,(H2,23,24,25,26,27)/t11-/m1/s1

>  <InChIKey>
RTGFZUPLFGBDKE-LLVKDONJSA-N

>  <SMILES>
C[C@@H]1CN(CCN1)C(=O)c2nc3ccc(cc3c(n2)Nc4cc([nH]n4)C5CC5)Cl

$$$$
