4N9C_2ZM_A_601
  RCSB PDB08012022363D
Coordinates from PDB:4N9C:A:601 Model:1 without hydrogens
 12 13  0  0  0  0            999 V2000
   10.9800    9.5740   38.3410   O 0  5  0  0  0  0  0  0  0  0  0  0
   10.0730    8.7600   38.3090   N 0  3  0  0  0  0  0  0  0  0  0  0
    9.2510    8.7990   37.4130   O 0  0  0  0  0  0  0  0  0  0  0  0
    9.9890    7.7050   39.3450   C 0  0  0  0  0  0  0  0  0  0  0  0
    8.9580    6.7830   39.3050   C 0  0  0  0  0  0  0  0  0  0  0  0
    8.8710    5.7910   40.2530   C 0  0  0  0  0  0  0  0  0  0  0  0
    9.8230    5.7110   41.2590   C 0  0  0  0  0  0  0  0  0  0  0  0
   10.0180    4.8610   42.3370   N 0  0  0  0  0  0  0  0  0  0  0  0
   11.1370    5.2850   42.9870   C 0  0  0  0  0  0  0  0  0  0  0  0
   11.6370    6.3260   42.3880   N 0  0  0  0  0  0  0  0  0  0  0  0
   10.8720    6.6460   41.3070   C 0  0  0  0  0  0  0  0  0  0  0  0
   10.9450    7.6460   40.3340   C 0  0  0  0  0  0  0  0  0  0  0  0
  9  8  1  0  0  0  0
  9 10  2  0  0  0  0
  8  7  1  0  0  0  0
 10 11  1  0  0  0  0
  7 11  2  0  0  0  0
  7  6  1  0  0  0  0
 11 12  1  0  0  0  0
  6  5  2  0  0  0  0
 12  4  2  0  0  0  0
  5  4  1  0  0  0  0
  4  2  1  0  0  0  0
  2  3  2  0  0  0  0
  2  1  1  0  0  0  0
M  CHG  2   1  -1   2   1
M  END
>  <InstanceId>
4N9C_2ZM_A_601

>  <ChemCompId>
2ZM

>  <PdbId>
4N9C

>  <ChainId>
A

>  <ResidueNumber>
601

>  <InsertionCode>


>  <Model>
1

>  <AltIds>


>  <MissingHeavyAtoms>
0

>  <ObservedFormula>
C7 N3 O2

>  <Name>
5-nitro-1H-benzimidazole

>  <SystematicName>
5-nitro-1H-benzimidazole

>  <Synonyms>


>  <Type>
NON-POLYMER

>  <Formula>
C7 H5 N3 O2

>  <MolecularWeight>
163.133

>  <ModifiedDate>
2014-02-14

>  <Parent>


>  <OneLetterCode>


>  <SubcomponentList>


>  <AmbiguousFlag>
N

>  <InChI>
InChI=1S/C7H5N3O2/c11-10(12)5-1-2-6-7(3-5)9-4-8-6/h1-4H,(H,8,9)

>  <InChIKey>
XPAZGLFMMUODDK-UHFFFAOYSA-N

>  <SMILES>
c1cc2c(cc1[N+](=O)[O-])nc[nH]2

$$$$
