5KAX_RHQ_A_201
  RCSB PDB08022002023D
Coordinates from PDB:5KAX:A:201 Model:1 without hydrogens
 33 36  0  0  0  0            999 V2000
   -3.2580   22.4770  -10.7370   C 0  0  0  0  0  0  0  0  0  0  0  0
   -1.9150   22.7360  -10.3930   C 0  0  0  0  0  0  0  0  0  0  0  0
   -1.1850   21.7260   -9.7450   C 0  0  0  0  0  0  0  0  0  0  0  0
   -1.7550   20.4710   -9.4330   C 0  0  0  0  0  0  0  0  0  0  0  0
   -3.0830   20.2020   -9.7760   C 0  0  0  0  0  0  0  0  0  0  0  0
   -3.8340   21.2040  -10.4240   C 0  0  0  0  0  0  0  0  0  0  0  0
   -4.0030   23.4510  -11.3770   O 0  0  0  0  0  0  0  0  0  0  0  0
   -3.4890   24.6810  -11.7010   C 0  0  0  0  0  0  0  0  0  0  0  0
   -2.1620   25.0170  -11.3920   C 0  0  0  0  0  0  0  0  0  0  0  0
   -1.3080   24.0460  -10.7130   C 0  0  0  0  0  0  0  0  0  0  0  0
   -4.3190   25.6280  -12.3500   C 0  0  0  0  0  0  0  0  0  0  0  0
   -3.8070   26.8850  -12.6930   C 0  0  0  0  0  0  0  0  0  0  0  0
   -2.5150   27.2010  -12.3940   C 0  0  0  0  0  0  0  0  0  0  0  0
   -1.6810   26.2940  -11.7420   C 0  0  0  0  0  0  0  0  0  0  0  0
   -4.6240   27.8950  -13.3690   N 0  0  0  0  0  0  0  0  0  0  0  0
    0.1690   24.3040  -10.3370   C 0  0  0  0  0  0  0  0  0  0  0  0
    0.5830   24.2180   -8.8810   C 0  0  0  0  0  0  0  0  0  0  0  0
    1.9120   24.4150   -8.4800   C 0  0  0  0  0  0  0  0  0  0  0  0
    2.9680   24.7210   -9.5090   C 0  0  0  0  0  0  0  0  0  0  0  0
    2.6230   24.7940  -10.8400   C 0  0  0  0  0  0  0  0  0  0  0  0
    1.1760   24.5760  -11.2710   C 0  0  0  0  0  0  0  0  0  0  0  0
   -2.0090   28.5400  -12.7780   C 0  0  0  0  0  0  0  0  0  0  0  0
   -0.8970   19.4290   -8.7320   C 0  0  0  0  0  0  0  0  0  0  0  0
   -6.0530   27.7480  -13.3770   C 0  0  0  0  0  0  0  0  0  0  0  0
   -6.7310   28.9710  -13.9340   C 0  0  0  0  0  0  0  0  0  0  0  0
   -3.6540   18.8950   -9.4350   N 0  3  0  0  0  0  0  0  0  0  0  0
   -4.8210   18.3710  -10.1340   C 0  0  0  0  0  0  0  0  0  0  0  0
   -5.3070   17.0960   -9.4730   C 0  0  0  0  0  0  0  0  0  0  0  0
    0.9200   24.6820  -12.7620   C 0  0  0  0  0  0  0  0  0  0  0  0
    0.1380   23.9260  -13.3020   O 0  0  0  0  0  0  0  0  0  0  0  0
    1.5770   25.6290  -13.5230   O 0  0  0  0  0  0  0  0  0  0  0  0
    0.7800   26.4850  -14.3030   C 0  0  0  0  0  0  0  0  0  0  0  0
    1.3030   26.5770  -15.6850   C 0  0  0  0  0  0  0  0  0  0  0  0
  1  2  1  0  0  0  0
  1  6  2  0  0  0  0
  1  7  1  0  0  0  0
  2  3  1  0  0  0  0
  2 10  2  0  0  0  0
  3  4  2  0  0  0  0
  4  5  1  0  0  0  0
  4 23  1  0  0  0  0
  5  6  1  0  0  0  0
  5 26  2  0  0  0  0
  7  8  1  0  0  0  0
  8  9  2  0  0  0  0
  8 11  1  0  0  0  0
  9 10  1  0  0  0  0
  9 14  1  0  0  0  0
 10 16  1  0  0  0  0
 11 12  2  0  0  0  0
 12 13  1  0  0  0  0
 12 15  1  0  0  0  0
 13 14  2  0  0  0  0
 13 22  1  0  0  0  0
 15 24  1  0  0  0  0
 16 17  2  0  0  0  0
 16 21  1  0  0  0  0
 17 18  1  0  0  0  0
 18 19  2  0  0  0  0
 19 20  1  0  0  0  0
 20 21  2  0  0  0  0
 21 29  1  0  0  0  0
 24 25  1  0  0  0  0
 26 27  1  0  0  0  0
 27 28  1  0  0  0  0
 29 30  2  0  0  0  0
 29 31  1  0  0  0  0
 31 32  1  0  0  0  0
 32 33  1  0  0  0  0
M  CHG  1  26   1
M  END
>  <InstanceId>
5KAX_RHQ_A_201

>  <ChemCompId>
RHQ

>  <PdbId>
5KAX

>  <ChainId>
A

>  <ResidueNumber>
201

>  <InsertionCode>


>  <Model>
1

>  <AltIds>


>  <MissingHeavyAtoms>
0

>  <ObservedFormula>
C28 N2 O3

>  <Name>
RHODAMINE 6G

>  <SystematicName>
(Z)-[9-(2-ethoxycarbonylphenyl)-6-ethylamino-2,7-dimethyl-xanthen-3-ylidene]-ethyl-azanium

>  <Synonyms>


>  <Type>
NON-POLYMER

>  <Formula>
C28 H31 N2 O3

>  <MolecularWeight>
443.557

>  <ModifiedDate>
2012-01-05

>  <Parent>


>  <OneLetterCode>


>  <SubcomponentList>


>  <AmbiguousFlag>
N

>  <InChI>
InChI=1S/C28H30N2O3/c1-6-29-23-15-25-21(13-17(23)4)27(19-11-9-10-12-20(19)28(31)32-8-3)22-14-18(5)24(30-7-2)16-26(22)33-25/h9-16,29H,6-8H2,1-5H3/p+1/b30-24-

>  <InChIKey>
IWWWBRIIGAXLCJ-KRUMMXJUSA-O

>  <SMILES>
CCNc1cc2c(cc1C)C(=C3C=C(/C(=[NH+]\CC)/C=C3O2)C)c4ccccc4C(=O)OCC

$$$$
