1DHI_MTX_A_161
  RCSB PDB08012014453D
Coordinates from PDB:1DHI:A:161 Model:1 without hydrogens
 33 35  0  0  0  0            999 V2000
   22.9690   58.7620   24.2580   N 0  0  0  0  0  0  0  0  0  0  0  0
   23.5860   58.2440   23.1920   C 0  0  0  0  0  0  0  0  0  0  0  0
   24.8550   58.1400   23.1220   N 0  0  0  0  0  0  0  0  0  0  0  0
   22.7810   57.7670   22.1400   N 0  0  0  0  0  0  0  0  0  0  0  0
   21.4290   57.8240   22.0360   C 0  0  0  0  0  0  0  0  0  0  0  0
   20.7850   57.3950   21.0130   N 0  0  0  0  0  0  0  0  0  0  0  0
   20.8300   58.4020   23.2340   C 0  0  0  0  0  0  0  0  0  0  0  0
   19.4800   58.5370   23.2140   N 0  0  0  0  0  0  0  0  0  0  0  0
   18.9280   59.0470   24.3530   C 0  0  0  0  0  0  0  0  0  0  0  0
   19.7510   59.3960   25.4440   C 0  0  0  0  0  0  0  0  0  0  0  0
   21.0910   59.3260   25.4290   N 0  0  0  0  0  0  0  0  0  0  0  0
   21.5880   58.8040   24.2750   C 0  0  0  0  0  0  0  0  0  0  0  0
   17.4580   59.1590   24.3680   C 0  0  0  0  0  0  0  0  0  0  0  0
   16.9330   60.0320   25.4700   N 0  0  0  0  0  0  0  0  0  0  0  0
   16.0010   59.3280   26.4060   C 0  0  0  0  0  0  0  0  0  0  0  0
   17.8950   64.1590   25.6940   C 0  0  0  0  0  0  0  0  0  0  0  0
   17.0340   63.5420   26.6450   C 0  0  0  0  0  0  0  0  0  0  0  0
   16.7460   62.1900   26.5420   C 0  0  0  0  0  0  0  0  0  0  0  0
   17.2930   61.4050   25.4790   C 0  0  0  0  0  0  0  0  0  0  0  0
   18.1110   62.0090   24.5470   C 0  0  0  0  0  0  0  0  0  0  0  0
   18.4200   63.3690   24.6660   C 0  0  0  0  0  0  0  0  0  0  0  0
   18.2050   65.5900   25.7890   C 0  0  0  0  0  0  0  0  0  0  0  0
   17.6770   66.3090   26.6450   O 0  0  0  0  0  0  0  0  0  0  0  0
   19.1130   66.1200   24.9860   N 0  0  0  0  0  0  0  0  0  0  0  0
   19.5130   67.5670   24.9840   C 0  0  0  0  0  0  0  0  0  0  0  0
   19.9560   67.7580   23.5610   C 0  0  0  0  0  0  0  0  0  0  0  0
   20.2970   66.7390   22.8960   O 0  0  0  0  0  0  0  0  0  0  0  0
   19.9240   68.9350   23.1220   O 0  0  0  0  0  0  0  0  0  0  0  0
   20.8050   67.7570   25.8240   C 0  0  0  0  0  0  0  0  0  0  0  0
   20.5760   67.6910   27.3960   C 0  0  0  0  0  0  0  0  0  0  0  0
   19.8460   68.8730   28.0620   C 0  0  0  0  0  0  0  0  0  0  0  0
   19.3310   68.5310   29.1880   O 0  0  0  0  0  0  0  0  0  0  0  0
   19.7860   69.9960   27.5180   O 0  0  0  0  0  0  0  0  0  0  0  0
  1  2  2  0  0  0  0
  1 12  1  0  0  0  0
  2  3  1  0  0  0  0
  2  4  1  0  0  0  0
  4  5  2  0  0  0  0
  5  6  1  0  0  0  0
  5  7  1  0  0  0  0
  7  8  1  0  0  0  0
  7 12  2  0  0  0  0
  8  9  2  0  0  0  0
  9 10  1  0  0  0  0
  9 13  1  0  0  0  0
 10 11  2  0  0  0  0
 11 12  1  0  0  0  0
 13 14  1  0  0  0  0
 14 15  1  0  0  0  0
 14 19  1  0  0  0  0
 16 17  2  0  0  0  0
 16 21  1  0  0  0  0
 16 22  1  0  0  0  0
 17 18  1  0  0  0  0
 18 19  2  0  0  0  0
 19 20  1  0  0  0  0
 20 21  2  0  0  0  0
 22 23  2  0  0  0  0
 22 24  1  0  0  0  0
 24 25  1  0  0  0  0
 25 26  1  0  0  0  0
 25 29  1  0  0  0  0
 26 27  2  0  0  0  0
 26 28  1  0  0  0  0
 29 30  1  0  0  0  0
 30 31  1  0  0  0  0
 31 32  2  0  0  0  0
 31 33  1  0  0  0  0
M  END
>  <InstanceId>
1DHI_MTX_A_161

>  <ChemCompId>
MTX

>  <PdbId>
1DHI

>  <ChainId>
A

>  <ResidueNumber>
161

>  <InsertionCode>


>  <Model>
1

>  <AltIds>


>  <MissingHeavyAtoms>
0

>  <ObservedFormula>
C20 N8 O5

>  <Name>
METHOTREXATE

>  <SystematicName>
(2S)-2-[[4-[(2,4-diaminopteridin-6-yl)methyl-methyl-amino]phenyl]carbonylamino]pentanedioic acid

>  <Synonyms>


>  <Type>
NON-POLYMER

>  <Formula>
C20 H22 N8 O5

>  <MolecularWeight>
454.439

>  <ModifiedDate>
2011-06-04

>  <Parent>


>  <OneLetterCode>


>  <SubcomponentList>


>  <AmbiguousFlag>
N

>  <InChI>
InChI=1S/C20H22N8O5/c1-28(9-11-8-23-17-15(24-11)16(21)26-20(22)27-17)12-4-2-10(3-5-12)18(31)25-13(19(32)33)6-7-14(29)30/h2-5,8,13H,6-7,9H2,1H3,(H,25,31)(H,29,30)(H,32,33)(H4,21,22,23,26,27)/t13-/m0/s1

>  <InChIKey>
FBOZXECLQNJBKD-ZDUSSCGKSA-N

>  <SMILES>
CN(Cc1cnc2c(n1)c(nc(n2)N)N)c3ccc(cc3)C(=O)N[C@@H](CCC(=O)O)C(=O)O

$$$$
