4CP7_9MW_A_1101
  RCSB PDB08012021243D
Coordinates from PDB:4CP7:A:1101 Model:1 without hydrogens
 55 57  0  0  0  0            999 V2000
    4.5320   25.3650    0.2410   C 0  0  0  0  0  0  0  0  0  0  0  0
    5.8710   25.6740    0.8880   C 0  0  0  0  0  0  0  0  0  0  0  0
    6.1100   25.2980    2.3050   C 0  0  0  0  0  0  0  0  0  0  0  0
    7.4890   24.9450    2.5020   C 0  0  0  0  0  0  0  0  0  0  0  0
    8.5080   25.8300    2.1330   C 0  0  0  0  0  0  0  0  0  0  0  0
    9.8590   25.4720    2.3320   C 0  0  0  0  0  0  0  0  0  0  0  0
    7.8190   23.7050    3.0700   C 0  0  0  0  0  0  0  0  0  0  0  0
    9.1580   23.3560    3.2650   C 0  0  0  0  0  0  0  0  0  0  0  0
   10.1790   24.2450    2.8940   C 0  0  0  0  0  0  0  0  0  0  0  0
   11.5500   23.8880    3.0940   C 0  0  0  0  0  0  0  0  0  0  0  0
   10.8400   24.4680    5.5340   C 0  0  0  0  0  0  0  0  0  0  0  0
   10.4780   23.4380    6.1140   O 0  0  0  0  0  0  0  0  0  0  0  0
   10.2580   25.6660    5.7080   N 0  0  0  0  0  0  0  0  0  0  0  0
    9.0810   25.8350    6.6370   C 0  0  0  0  0  0  0  0  0  0  0  0
    9.5240   26.4260    8.1110   C 0  0  0  0  0  0  0  0  0  0  0  0
   10.9580   25.9690    8.4650   C 0  0  0  0  0  0  0  0  0  0  0  0
    9.4430   27.9800    8.1210   C 0  0  0  0  0  0  0  0  0  0  0  0
    8.0300   26.8090    5.9210   C 0  0  0  0  0  0  0  0  0  0  0  0
    8.3720   27.9300    5.4790   O 0  0  0  0  0  0  0  0  0  0  0  0
    6.8460   26.3480    5.8300   N 0  0  0  0  0  0  0  0  0  0  0  0
    5.7930   27.0980    5.2140   C 0  0  0  0  0  0  0  0  0  0  0  0
    5.0490   27.8110    6.2570   C 0  0  0  0  0  0  0  0  0  0  0  0
    4.4980   27.0470    7.4350   C 0  0  0  0  0  0  0  0  0  0  0  0
   12.5580   25.7690    4.3300   O 0  0  0  0  0  0  0  0  0  0  0  0
   13.1540   23.5640    4.9980   C 0  0  0  0  0  0  0  0  0  0  0  0
   13.7710   24.1380    6.2130   C 0  0  0  0  0  0  0  0  0  0  0  0
   15.1900   23.6960    6.2780   C 0  0  0  0  0  0  0  0  0  0  0  0
   15.2980   22.3420    6.8410   N 0  0  0  0  0  0  0  0  0  0  0  0
   15.9110   21.6620    6.1250   N 0  0  0  0  0  0  0  0  0  0  0  0
   15.2710   20.6170    5.5200   C 0  0  0  0  0  0  0  0  0  0  0  0
   12.0610   24.4530    4.5020   C 0  0  0  0  0  0  0  0  0  0  0  0
   14.0600   20.3380    5.6800   O 0  0  0  0  0  0  0  0  0  0  0  0
   16.1870   19.7750    4.6110   C 0  0  0  0  0  0  0  0  0  0  0  0
   15.3930   19.0510    3.4750   C 0  0  0  0  0  0  0  0  0  0  0  0
   14.5460   20.0760    2.6880   C 0  0  0  0  0  0  0  0  0  0  0  0
   14.4620   17.9620    4.0900   C 0  0  0  0  0  0  0  0  0  0  0  0
   16.4290   18.3600    2.4960   C 0  0  0  0  0  0  0  0  0  0  0  0
   16.8500   18.7810    5.4560   N 0  0  0  0  0  0  0  0  0  0  0  0
   18.1230   18.7640    5.5940   C 0  0  0  0  0  0  0  0  0  0  0  0
   18.8250   19.6030    4.9980   O 0  0  0  0  0  0  0  0  0  0  0  0
   18.7180   17.7920    6.4210   O 0  0  0  0  0  0  0  0  0  0  0  0
   20.0400   18.1640    6.7590   C 0  0  0  0  0  0  0  0  0  0  0  0
   16.0470   22.4680    8.0050   C 0  0  0  0  0  0  0  0  0  0  0  0
   16.2280   21.1870    8.7470   C 0  0  0  0  0  0  0  0  0  0  0  0
   15.1620   20.5850    9.3490   C 0  0  0  0  0  0  0  0  0  0  0  0
   15.3330   19.3790   10.0540   C 0  0  0  0  0  0  0  0  0  0  0  0
   17.5120   20.5940    8.8370   C 0  0  0  0  0  0  0  0  0  0  0  0
   17.6790   19.3900    9.5420   C 0  0  0  0  0  0  0  0  0  0  0  0
   16.5780   18.7860   10.1470   C 0  0  0  0  0  0  0  0  0  0  0  0
   16.7290   17.5680   10.8740   C 0  0  0  0  0  0  0  0  0  0  0  0
   17.9020   17.3900   11.6610   C 0  0  0  0  0  0  0  0  0  0  0  0
   18.0980   16.2280   12.3950   C 0  0  0  0  0  0  0  0  0  0  0  0
   17.1520   15.2300   12.3720   N 0  0  0  0  0  0  0  0  0  0  0  0
   15.9800   15.3890   11.6010   C 0  0  0  0  0  0  0  0  0  0  0  0
   15.7770   16.5870   10.8450   C 0  0  0  0  0  0  0  0  0  0  0  0
 51 52  1  0  0  0  0
 51 50  2  0  0  0  0
 52 53  2  0  0  0  0
 53 54  1  0  0  0  0
 54 55  2  0  0  0  0
 55 50  1  0  0  0  0
 50 49  1  0  0  0  0
 49 48  1  0  0  0  0
 49 46  2  0  0  0  0
 48 47  2  0  0  0  0
 47 44  1  0  0  0  0
 46 45  1  0  0  0  0
 45 44  2  0  0  0  0
 44 43  1  0  0  0  0
 43 28  1  0  0  0  0
 28 29  1  0  0  0  0
 28 27  1  0  0  0  0
 29 30  1  0  0  0  0
 30 32  2  0  0  0  0
 30 33  1  0  0  0  0
 33 34  1  0  0  0  0
 33 38  1  0  0  0  0
 34 35  1  0  0  0  0
 34 36  1  0  0  0  0
 34 37  1  0  0  0  0
 38 39  1  0  0  0  0
 39 40  2  0  0  0  0
 39 41  1  0  0  0  0
 41 42  1  0  0  0  0
 27 26  1  0  0  0  0
 26 25  1  0  0  0  0
 25 31  1  0  0  0  0
 31 10  1  0  0  0  0
 31 24  1  0  0  0  0
 31 11  1  0  0  0  0
 10  9  1  0  0  0  0
  9  8  1  0  0  0  0
  9  6  2  0  0  0  0
  8  7  2  0  0  0  0
  7  4  1  0  0  0  0
  6  5  1  0  0  0  0
  5  4  2  0  0  0  0
  4  3  1  0  0  0  0
  3  2  1  0  0  0  0
  2  1  2  0  0  0  0
 11 12  2  0  0  0  0
 11 13  1  0  0  0  0
 13 14  1  0  0  0  0
 14 15  1  0  0  0  0
 14 18  1  0  0  0  0
 15 16  1  0  0  0  0
 15 17  1  0  0  0  0
 18 19  2  0  0  0  0
 18 20  1  0  0  0  0
 20 21  1  0  0  0  0
 21 22  1  0  0  0  0
 22 23  2  0  0  0  0
M  END
>  <InstanceId>
4CP7_9MW_A_1101

>  <ChemCompId>
9MW

>  <PdbId>
4CP7

>  <ChainId>
A

>  <ResidueNumber>
1101

>  <InsertionCode>


>  <Model>
1

>  <AltIds>


>  <MissingHeavyAtoms>
0

>  <ObservedFormula>
C43 N6 O6

>  <Name>
methyl [(2S)-1-(2-{(4R)-4-hydroxy-5-{[(2S)-3-methyl-1-oxo-1-(prop-2-en-1-ylamino)butan-2-yl]amino}-5-oxo-4-[4-(prop-2-en-1-yl)benzyl]pentyl}-2-[4-(pyridin-4-yl)benzyl]hydrazinyl)-3,3-dimethyl-1-oxobutan-2-yl]carbamate

>  <SystematicName>
methyl N-[(2S)-3,3-dimethyl-1-[2-[(4R)-5-[[(2S)-3-methyl-1-oxidanylidene-1-(prop-2-enylamino)butan-2-yl]amino]-4-oxidanyl-5-oxidanylidene-4-[(4-prop-2-enylphenyl)methyl]pentyl]-2-[(4-pyridin-4-ylphenyl)methyl]hydrazinyl]-1-oxidanylidene-butan-2-yl]carbamate

>  <Synonyms>


>  <Type>
non-polymer

>  <Formula>
C43 H58 N6 O6

>  <MolecularWeight>
754.957

>  <ModifiedDate>
2014-12-05

>  <Parent>


>  <OneLetterCode>


>  <SubcomponentList>


>  <AmbiguousFlag>
N

>  <InChI>
InChI=1S/C43H58N6O6/c1-9-12-31-13-15-32(16-14-31)28-43(54,40(52)46-36(30(3)4)38(50)45-24-10-2)23-11-27-49(48-39(51)37(42(5,6)7)47-41(53)55-8)29-33-17-19-34(20-18-33)35-21-25-44-26-22-35/h9-10,13-22,25-26,30,36-37,54H,1-2,11-12,23-24,27-29H2,3-8H3,(H,45,50)(H,46,52)(H,47,53)(H,48,51)/t36-,37+,43+/m0/s1

>  <InChIKey>
AZJLJLJSOQLYEA-COCJHVOVSA-N

>  <SMILES>
CC(C)[C@@H](C(=O)NCC=C)NC(=O)[C@@](CCCN(Cc1ccc(cc1)c2ccncc2)NC(=O)[C@H](C(C)(C)C)NC(=O)OC)(Cc3ccc(cc3)CC=C)O

$$$$
