6CVV_ATP_A_301
  RCSB PDB08022004183D
Coordinates from PDB:6CVV:A:301 Model:1 without hydrogens
 31 33  0  0  0  0            999 V2000
   -4.2060  -35.0360   20.5880   P 0  0  0  0  0  0  0  0  0  0  0  0
   -5.0370  -35.9380   19.7050   O 0  0  0  0  0  0  0  0  0  0  0  0
   -3.8060  -33.7230   19.9540   O 0  0  0  0  0  0  0  0  0  0  0  0
   -2.9910  -35.7190   21.1750   O 0  0  0  0  0  0  0  0  0  0  0  0
   -6.7550  -34.3100   21.7780   P 0  0  0  0  0  0  0  0  0  0  0  0
   -7.2700  -34.3500   20.3630   O 0  0  0  0  0  0  0  0  0  0  0  0
   -6.9520  -33.0290   22.5720   O 0  0  0  0  0  0  0  0  0  0  0  0
   -5.1850  -34.7610   21.8630   O 0  0  0  0  0  0  0  0  0  0  0  0
   -8.1660  -36.6840   21.8070   P 0  0  0  0  0  0  0  0  0  0  0  0
   -7.3340  -36.8690   20.5630   O 0  0  0  0  0  0  0  0  0  0  0  0
   -9.6890  -36.4800   21.6870   O 0  0  0  0  0  0  0  0  0  0  0  0
   -7.5560  -35.4240   22.5940   O 0  0  0  0  0  0  0  0  0  0  0  0
   -7.6590  -37.8570   22.8050   O 0  0  0  0  0  0  0  0  0  0  0  0
   -7.4460  -37.5890   24.1950   C 0  0  0  0  0  0  0  0  0  0  0  0
   -5.9840  -37.4060   24.6290   C 0  0  0  0  0  0  0  0  0  0  0  0
   -5.6880  -38.0910   25.8550   O 0  0  0  0  0  0  0  0  0  0  0  0
   -4.8760  -37.8480   23.6850   C 0  0  0  0  0  0  0  0  0  0  0  0
   -4.5680  -36.8420   22.7390   O 0  0  0  0  0  0  0  0  0  0  0  0
   -3.6720  -37.9850   24.5900   C 0  0  0  0  0  0  0  0  0  0  0  0
   -2.9110  -36.7710   24.5910   O 0  0  0  0  0  0  0  0  0  0  0  0
   -4.2620  -38.1830   25.9750   C 0  0  0  0  0  0  0  0  0  0  0  0
   -3.8130  -39.4970   26.4800   N 0  0  0  0  0  0  0  0  0  0  0  0
   -3.3340  -39.7090   27.7260   C 0  0  0  0  0  0  0  0  0  0  0  0
   -2.9690  -41.0010   27.9050   N 0  0  0  0  0  0  0  0  0  0  0  0
   -3.2060  -41.6320   26.7440   C 0  0  0  0  0  0  0  0  0  0  0  0
   -3.0290  -43.0170   26.2760   C 0  0  0  0  0  0  0  0  0  0  0  0
   -2.5300  -43.9590   27.1160   N 0  0  0  0  0  0  0  0  0  0  0  0
   -3.3830  -43.3010   25.0040   N 0  0  0  0  0  0  0  0  0  0  0  0
   -3.8790  -42.3510   24.1810   C 0  0  0  0  0  0  0  0  0  0  0  0
   -4.0720  -41.0640   24.5360   N 0  0  0  0  0  0  0  0  0  0  0  0
   -3.7510  -40.6450   25.7930   C 0  0  0  0  0  0  0  0  0  0  0  0
  1  2  2  0  0  0  0
  1  3  1  0  0  0  0
  1  4  1  0  0  0  0
  1  8  1  0  0  0  0
  5  6  2  0  0  0  0
  5  7  1  0  0  0  0
  5  8  1  0  0  0  0
  5 12  1  0  0  0  0
  9 10  2  0  0  0  0
  9 11  1  0  0  0  0
  9 12  1  0  0  0  0
  9 13  1  0  0  0  0
 13 14  1  0  0  0  0
 14 15  1  0  0  0  0
 15 16  1  0  0  0  0
 15 17  1  0  0  0  0
 16 21  1  0  0  0  0
 17 18  1  0  0  0  0
 17 19  1  0  0  0  0
 19 20  1  0  0  0  0
 19 21  1  0  0  0  0
 21 22  1  0  0  0  0
 22 23  1  0  0  0  0
 22 31  1  0  0  0  0
 23 24  2  0  0  0  0
 24 25  1  0  0  0  0
 25 26  1  0  0  0  0
 25 31  2  0  0  0  0
 26 27  1  0  0  0  0
 26 28  2  0  0  0  0
 28 29  1  0  0  0  0
 29 30  2  0  0  0  0
 30 31  1  0  0  0  0
M  END
>  <InstanceId>
6CVV_ATP_A_301

>  <ChemCompId>
ATP

>  <PdbId>
6CVV

>  <ChainId>
A

>  <ResidueNumber>
301

>  <InsertionCode>


>  <Model>
1

>  <AltIds>


>  <MissingHeavyAtoms>
0

>  <ObservedFormula>
C10 N5 O13 P3

>  <Name>
ADENOSINE-5'-TRIPHOSPHATE

>  <SystematicName>
[[(2R,3S,4R,5R)-5-(6-aminopurin-9-yl)-3,4-dihydroxy-oxolan-2-yl]methoxy-hydroxy-phosphoryl] phosphono hydrogen phosphate

>  <Synonyms>


>  <Type>
NON-POLYMER

>  <Formula>
C10 H16 N5 O13 P3

>  <MolecularWeight>
507.181

>  <ModifiedDate>
2011-06-04

>  <Parent>


>  <OneLetterCode>


>  <SubcomponentList>


>  <AmbiguousFlag>
N

>  <InChI>
InChI=1S/C10H16N5O13P3/c11-8-5-9(13-2-12-8)15(3-14-5)10-7(17)6(16)4(26-10)1-25-30(21,22)28-31(23,24)27-29(18,19)20/h2-4,6-7,10,16-17H,1H2,(H,21,22)(H,23,24)(H2,11,12,13)(H2,18,19,20)/t4-,6-,7-,10-/m1/s1

>  <InChIKey>
ZKHQWZAMYRWXGA-KQYNXXCUSA-N

>  <SMILES>
c1nc(c2c(n1)n(cn2)[C@H]3[C@@H]([C@@H]([C@H](O3)CO[P@@](=O)(O)O[P@](=O)(O)OP(=O)(O)O)O)O)N

$$$$
