1O2N_762_A_246
  RCSB PDB08012015363D
Coordinates from PDB:1O2N:A:246 Model:1 without hydrogens
 26 29  0  0  0  0            999 V2000
   44.0050   -3.0860   25.8460   C 0  0  0  0  0  0  0  0  0  0  0  0
   43.9260   -1.6580   25.7880   C 0  0  0  0  0  0  0  0  0  0  0  0
   43.8690   -0.6970   24.2750  Cl 0  0  0  0  0  0  0  0  0  0  0  0
   43.8260   -0.9270   26.9940   C 0  0  0  0  0  0  0  0  0  0  0  0
   43.8060   -1.6100   28.2000   C 0  0  0  0  0  0  0  0  0  0  0  0
   43.8730   -2.9430   28.2680   C 0  0  0  0  0  0  0  0  0  0  0  0
   43.9770   -3.7180   27.1020   C 0  0  0  0  0  0  0  0  0  0  0  0
   44.1440   -3.8730   24.6740   C 0  0  0  0  0  0  0  0  0  0  0  0
   43.7440   -5.1240   24.5990   N 0  0  0  0  0  0  0  0  0  0  0  0
   44.7180   -3.2880   23.6550   N 0  3  0  0  0  0  0  0  0  0  0  0
   43.7060   -1.2310   29.4370   N 0  0  0  0  0  0  0  0  0  0  0  0
   43.8160   -3.4090   29.5060   N 0  0  0  0  0  0  0  0  0  0  0  0
   43.7390   -2.2910   30.2130   C 0  0  0  0  0  0  0  0  0  0  0  0
   43.5740   -2.2280   31.6150   C 0  0  0  0  0  0  0  0  0  0  0  0
   43.2160   -3.3600   32.3690   C 0  0  0  0  0  0  0  0  0  0  0  0
   43.0430   -3.2690   33.7540   C 0  0  0  0  0  0  0  0  0  0  0  0
   43.2110   -2.0590   34.3970   C 0  0  0  0  0  0  0  0  0  0  0  0
   43.5800   -0.9280   33.6700   C 0  0  0  0  0  0  0  0  0  0  0  0
   43.7540   -1.0110   32.2820   C 0  0  0  0  0  0  0  0  0  0  0  0
   44.0890    0.1190   31.5480   O 0  5  0  0  0  0  0  0  0  0  0  0
   43.7660    0.2810   34.3380   C 0  0  0  0  0  0  0  0  0  0  0  0
   44.7950    0.3870   35.2740   C 0  0  0  0  0  0  0  0  0  0  0  0
   44.9900    1.5860   35.9620   C 0  0  0  0  0  0  0  0  0  0  0  0
   44.1760    2.6770   35.7120   C 0  0  0  0  0  0  0  0  0  0  0  0
   43.1740    2.5780   34.7750   C 0  0  0  0  0  0  0  0  0  0  0  0
   42.9590    1.3830   34.0900   C 0  0  0  0  0  0  0  0  0  0  0  0
  1  2  2  0  0  0  0
  1  7  1  0  0  0  0
  1  8  1  0  0  0  0
  2  3  1  0  0  0  0
  2  4  1  0  0  0  0
  4  5  2  0  0  0  0
  5  6  1  0  0  0  0
  5 11  1  0  0  0  0
  6  7  2  0  0  0  0
  6 12  1  0  0  0  0
  8  9  1  0  0  0  0
  8 10  2  0  0  0  0
 11 13  1  0  0  0  0
 12 13  2  0  0  0  0
 13 14  1  0  0  0  0
 14 15  2  0  0  0  0
 14 19  1  0  0  0  0
 15 16  1  0  0  0  0
 16 17  2  0  0  0  0
 17 18  1  0  0  0  0
 18 19  2  0  0  0  0
 18 21  1  0  0  0  0
 19 20  1  0  0  0  0
 21 22  2  0  0  0  0
 21 26  1  0  0  0  0
 22 23  1  0  0  0  0
 23 24  2  0  0  0  0
 24 25  1  0  0  0  0
 25 26  2  0  0  0  0
M  CHG  2  10   1  20  -1
M  END
>  <InstanceId>
1O2N_762_A_246

>  <ChemCompId>
762

>  <PdbId>
1O2N

>  <ChainId>
A

>  <ResidueNumber>
246

>  <InsertionCode>


>  <Model>
1

>  <AltIds>


>  <MissingHeavyAtoms>
0

>  <ObservedFormula>
C20 N4 O Cl

>  <Name>
3-{5-[AMINO(IMINIO)METHYL]-6-CHLORO-1H-BENZIMIDAZOL-2-YL}-1,1'-BIPHENYL-2-OLATE

>  <SystematicName>
2-[5-(amino-azaniumylidene-methyl)-6-chloro-1H-benzimidazol-2-yl]-6-phenyl-phenolate

>  <Synonyms>
CRA_10762

>  <Type>
NON-POLYMER

>  <Formula>
C20 H15 Cl N4 O

>  <MolecularWeight>
362.812

>  <ModifiedDate>
2020-06-17

>  <Parent>


>  <OneLetterCode>


>  <SubcomponentList>


>  <AmbiguousFlag>
N

>  <InChI>
InChI=1S/C20H15ClN4O/c21-15-10-17-16(9-14(15)19(22)23)24-20(25-17)13-8-4-7-12(18(13)26)11-5-2-1-3-6-11/h1-10,26H,(H3,22,23)(H,24,25)

>  <InChIKey>
RPGVMAPDADAHPV-UHFFFAOYSA-N

>  <SMILES>
c1ccc(cc1)c2cccc(c2[O-])c3[nH]c4cc(c(cc4n3)C(=[NH2+])N)Cl

$$$$
