5ALB_TIQ_L_1210
  RCSB PDB08022000473D
Coordinates from PDB:5ALB:L:1210 Model:1 without hydrogens
 36 40  0  0  0  0            999 V2000
    1.4160    4.2780    1.8620   C 0  0  0  0  0  0  0  0  0  0  0  0
    2.6300    5.1600    2.0460   C 0  0  0  0  0  0  0  0  0  0  0  0
    2.8550    6.0590    0.8450   C 0  0  0  0  0  0  0  0  0  0  0  0
    4.4190    6.9590    1.0290   S 0  0  0  0  0  0  0  0  0  0  0  0
    5.6090    5.9420    0.2110   C 0  0  0  0  0  0  0  0  0  0  0  0
    6.8720    6.3800    0.2230   N 0  0  0  0  0  0  0  0  0  0  0  0
    7.8410    5.6630   -0.3700   C 0  0  0  0  0  0  0  0  0  0  0  0
    9.1760    6.0590   -0.4190   N 0  0  0  0  0  0  0  0  0  0  0  0
    9.7030    6.8160    0.7190   C 0  0  0  0  0  0  0  0  0  0  0  0
   10.1720    8.2200    0.4650   C 0  0  0  0  0  0  0  0  0  0  0  0
   11.1570    7.1570    0.8260   C 0  0  0  0  0  0  0  0  0  0  0  0
   11.8540    7.3130    2.1260   C 0  0  0  0  0  0  0  0  0  0  0  0
   13.2280    7.1460    2.1450   C 0  0  0  0  0  0  0  0  0  0  0  0
   13.9660    7.2750    3.3050   C 0  0  0  0  0  0  0  0  0  0  0  0
   13.3120    7.5740    4.4790   C 0  0  0  0  0  0  0  0  0  0  0  0
   13.9970    7.6900    5.6250   F 0  0  0  0  0  0  0  0  0  0  0  0
   11.9500    7.7620    4.4790   C 0  0  0  0  0  0  0  0  0  0  0  0
   11.3340    8.0630    5.6260   F 0  0  0  0  0  0  0  0  0  0  0  0
   11.2240    7.6420    3.3170   C 0  0  0  0  0  0  0  0  0  0  0  0
    7.4730    4.4750   -0.9750   C 0  0  0  0  0  0  0  0  0  0  0  0
    8.1710    3.5200   -1.6660   N 0  0  0  0  0  0  0  0  0  0  0  0
    7.3240    2.5710   -2.0380   N 0  0  0  0  0  0  0  0  0  0  0  0
    6.1040    2.9320   -1.6010   N 0  0  0  0  0  0  0  0  0  0  0  0
    5.0130    1.9810   -1.6570   C 0  0  0  0  0  0  0  0  0  0  0  0
    3.7660    2.4610   -2.3670   C 0  0  0  0  0  0  0  0  0  0  0  0
    2.6250    1.7160   -1.6960   C 0  0  0  0  0  0  0  0  0  0  0  0
    1.5750    2.5570   -1.1910   O 0  0  0  0  0  0  0  0  0  0  0  0
    0.6100    2.8450   -2.2180   C 0  0  0  0  0  0  0  0  0  0  0  0
   -0.5490    1.8650   -2.2530   C 0  0  0  0  0  0  0  0  0  0  0  0
   -0.9800    1.6280   -0.9280   O 0  0  0  0  0  0  0  0  0  0  0  0
    3.2010    0.9690   -0.5160   C 0  0  0  0  0  0  0  0  0  0  0  0
    3.3570   -0.4090   -0.8810   O 0  0  0  0  0  0  0  0  0  0  0  0
    4.5490    1.5930   -0.2610   C 0  0  0  0  0  0  0  0  0  0  0  0
    5.4060    0.6790    0.4440   O 0  0  0  0  0  0  0  0  0  0  0  0
    6.1540    4.1200   -0.9200   C 0  0  0  0  0  0  0  0  0  0  0  0
    5.1680    4.8100   -0.3420   N 0  0  0  0  0  0  0  0  0  0  0  0
  1  2  1  0  0  0  0
  2  3  1  0  0  0  0
  3  4  1  0  0  0  0
  4  5  1  0  0  0  0
  5  6  1  0  0  0  0
  5 36  2  0  0  0  0
  6  7  2  0  0  0  0
  7  8  1  0  0  0  0
  7 20  1  0  0  0  0
  8  9  1  0  0  0  0
  9 10  1  0  0  0  0
  9 11  1  0  0  0  0
 10 11  1  0  0  0  0
 11 12  1  0  0  0  0
 12 13  1  0  0  0  0
 12 19  2  0  0  0  0
 13 14  2  0  0  0  0
 14 15  1  0  0  0  0
 15 16  1  0  0  0  0
 15 17  2  0  0  0  0
 17 18  1  0  0  0  0
 17 19  1  0  0  0  0
 20 21  1  0  0  0  0
 20 35  2  0  0  0  0
 21 22  2  0  0  0  0
 22 23  1  0  0  0  0
 23 24  1  0  0  0  0
 23 35  1  0  0  0  0
 24 25  1  0  0  0  0
 24 33  1  0  0  0  0
 25 26  1  0  0  0  0
 26 27  1  0  0  0  0
 26 31  1  0  0  0  0
 27 28  1  0  0  0  0
 28 29  1  0  0  0  0
 29 30  1  0  0  0  0
 31 32  1  0  0  0  0
 31 33  1  0  0  0  0
 33 34  1  0  0  0  0
 35 36  1  0  0  0  0
M  END
>  <InstanceId>
5ALB_TIQ_L_1210

>  <ChemCompId>
TIQ

>  <PdbId>
5ALB

>  <ChainId>
L

>  <ResidueNumber>
1210

>  <InsertionCode>


>  <Model>
1

>  <AltIds>


>  <MissingHeavyAtoms>
0

>  <ObservedFormula>
C23 N6 O4 S F2

>  <Name>
Ticagrelor

>  <SystematicName>
(1S,2S,3R,5S)-3-[7-[[(1R,2S)-2-[3,4-bis(fluoranyl)phenyl]cyclopropyl]amino]-5-propylsulfanyl-[1,2,3]triazolo[4,5-d]pyrimidin-3-yl]-5-(2-hydroxyethyloxy)cyclopentane-1,2-diol

>  <Synonyms>


>  <Type>
non-polymer

>  <Formula>
C23 H28 F2 N6 O4 S

>  <MolecularWeight>
522.568

>  <ModifiedDate>
2015-03-27

>  <Parent>


>  <OneLetterCode>


>  <SubcomponentList>


>  <AmbiguousFlag>
N

>  <InChI>
InChI=1S/C23H28F2N6O4S/c1-2-7-36-23-27-21(26-15-9-12(15)11-3-4-13(24)14(25)8-11)18-22(28-23)31(30-29-18)16-10-17(35-6-5-32)20(34)19(16)33/h3-4,8,12,15-17,19-20,32-34H,2,5-7,9-10H2,1H3,(H,26,27,28)/t12-,15+,16+,17-,19-,20+/m0/s1

>  <InChIKey>
OEKWJQXRCDYSHL-FNOIDJSQSA-N

>  <SMILES>
CCCSc1nc(c2c(n1)n(nn2)[C@@H]3C[C@@H]([C@H]([C@H]3O)O)OCCO)N[C@@H]4C[C@H]4c5ccc(c(c5)F)F

$$$$
