5Y13_8K0_A_201
  RCSB PDB08022003413D
Coordinates from PDB:5Y13:A:201 Model:1 without hydrogens
 22 23  0  0  0  0            999 V2000
   -5.7720    4.5490  -14.9120   O 0  0  0  0  0  0  0  0  0  0  0  0
   -6.2500    5.7230  -15.1990   C 0  0  0  0  0  0  0  0  0  0  0  0
   -5.7200    6.7970  -14.7170   O 0  0  0  0  0  0  0  0  0  0  0  0
   -7.4170    5.8160  -16.1250   C 0  0  0  0  0  0  0  0  0  0  0  0
   -7.1210    6.4070  -17.4250   C 0  0  0  0  0  0  0  0  0  0  0  0
   -7.5670    7.8600  -17.6270   C 0  0  0  0  0  0  0  0  0  0  0  0
   -7.9140    8.2220  -19.0540   C 0  0  0  0  0  0  0  0  0  0  0  0
   -7.6530    9.5850  -19.4690   N 0  0  0  0  0  0  0  0  0  0  0  0
   -6.0740    9.8980  -19.6800   S 0  0  0  0  0  0  0  0  0  0  0  0
   -5.9950   10.8380  -20.8890   O 0  0  0  0  0  0  0  0  0  0  0  0
   -5.5410   10.5400  -18.4600   O 0  0  0  0  0  0  0  0  0  0  0  0
   -5.1270    8.3860  -19.9690   C 0  0  0  0  0  0  0  0  0  0  0  0
   -5.1610    7.6180  -21.2110   C 0  0  0  0  0  0  0  0  0  0  0  0
   -5.9460    8.0310  -22.2760   C 0  0  0  0  0  0  0  0  0  0  0  0
   -5.9620    7.2780  -23.4730   C 0  0  0  0  0  0  0  0  0  0  0  0
   -5.1850    6.1040  -23.5770   C 0  0  0  0  0  0  0  0  0  0  0  0
   -4.4200    5.6960  -22.5260   C 0  0  0  0  0  0  0  0  0  0  0  0
   -4.3830    6.4540  -21.3140   C 0  0  0  0  0  0  0  0  0  0  0  0
   -3.5960    6.0460  -20.2070   C 0  0  0  0  0  0  0  0  0  0  0  0
   -2.4510    4.4420  -20.0980  Br 0  0  0  0  0  0  0  0  0  0  0  0
   -3.5880    6.8140  -19.0140   C 0  0  0  0  0  0  0  0  0  0  0  0
   -4.3520    7.9720  -18.9170   C 0  0  0  0  0  0  0  0  0  0  0  0
 16 15  1  0  0  0  0
 16 17  2  0  0  0  0
 15 14  2  0  0  0  0
 17 18  1  0  0  0  0
 14 13  1  0  0  0  0
 18 13  1  0  0  0  0
 18 19  2  0  0  0  0
 13 12  2  0  0  0  0
 10  9  2  0  0  0  0
 19 20  1  0  0  0  0
 19 21  1  0  0  0  0
 12  9  1  0  0  0  0
 12 22  1  0  0  0  0
  9  8  1  0  0  0  0
  9 11  2  0  0  0  0
  8  7  1  0  0  0  0
  7  6  1  0  0  0  0
 21 22  2  0  0  0  0
  6  5  1  0  0  0  0
  5  4  1  0  0  0  0
  4  2  1  0  0  0  0
  2  1  2  0  0  0  0
  2  3  1  0  0  0  0
M  END
>  <InstanceId>
5Y13_8K0_A_201

>  <ChemCompId>
8K0

>  <PdbId>
5Y13

>  <ChainId>
A

>  <ResidueNumber>
201

>  <InsertionCode>


>  <Model>
1

>  <AltIds>


>  <MissingHeavyAtoms>
0

>  <ObservedFormula>
C15 N O4 Br S

>  <Name>
5-[(4-bromanylnaphthalen-1-yl)sulfonylamino]pentanoic acid

>  <SystematicName>
5-[(4-bromanylnaphthalen-1-yl)sulfonylamino]pentanoic acid

>  <Synonyms>


>  <Type>
NON-POLYMER

>  <Formula>
C15 H16 Br N O4 S

>  <MolecularWeight>
386.261

>  <ModifiedDate>
2018-06-01

>  <Parent>


>  <OneLetterCode>


>  <SubcomponentList>


>  <AmbiguousFlag>
N

>  <InChI>
InChI=1S/C15H16BrNO4S/c16-13-8-9-14(12-6-2-1-5-11(12)13)22(20,21)17-10-4-3-7-15(18)19/h1-2,5-6,8-9,17H,3-4,7,10H2,(H,18,19)

>  <InChIKey>
OGTDHOOIGRXVIY-UHFFFAOYSA-N

>  <SMILES>
c1ccc2c(c1)c(ccc2Br)S(=O)(=O)NCCCCC(=O)O

$$$$
