6HH3_A1R_A_403
  RCSB PDB08022004583D
Coordinates from PDB:6HH3:A:403 Model:1 without hydrogens
 35 38  0  0  0  0            999 V2000
  -11.5720   -7.9720   -1.3860   N 0  0  0  0  0  0  0  0  0  0  0  0
  -10.2350   -8.0540   -1.4160   C 0  0  0  0  0  0  0  0  0  0  0  0
   -9.4760   -7.2650   -2.1930   N 0  0  0  0  0  0  0  0  0  0  0  0
  -10.0200   -6.3210   -2.9880   C 0  0  0  0  0  0  0  0  0  0  0  0
  -11.4630   -6.1600   -3.0050   C 0  0  0  0  0  0  0  0  0  0  0  0
  -12.2380   -7.0700   -2.1450   C 0  0  0  0  0  0  0  0  0  0  0  0
  -13.5770   -6.9970   -2.1060   N 0  0  0  0  0  0  0  0  0  0  0  0
  -11.7250   -5.1590   -3.8460   N 0  0  0  0  0  0  0  0  0  0  0  0
  -10.5300   -4.7360   -4.3530   C 0  0  0  0  0  0  0  0  0  0  0  0
   -9.5260   -5.4380   -3.8250   N 0  0  0  0  0  0  0  0  0  0  0  0
   -8.0810   -5.2600   -4.0550   C 0  0  0  0  0  0  0  0  0  0  0  0
   -7.4980   -6.3740   -4.9020   C 0  0  0  0  0  0  0  0  0  0  0  0
   -6.1610   -6.5700   -4.4320   O 0  0  0  0  0  0  0  0  0  0  0  0
   -7.5570   -5.7860   -6.3020   C 0  0  0  0  0  0  0  0  0  0  0  0
   -6.6500   -6.4000   -7.2310   O 0  0  0  0  0  0  0  0  0  0  0  0
   -7.8570   -4.0570   -4.7570   O 0  0  0  0  0  0  0  0  0  0  0  0
   -7.2310   -4.3540   -6.0050   C 0  0  0  0  0  0  0  0  0  0  0  0
   -7.6820   -3.4100   -7.1020   C 0  0  0  0  0  0  0  0  0  0  0  0
   -9.0600   -3.5400   -7.3370   O 0  0  0  0  0  0  0  0  0  0  0  0
   -9.6380   -3.7360   -8.8040   P 0  0  0  0  0  0  0  0  0  0  0  0
  -11.1320   -3.6460   -8.7740   O 0  0  0  0  0  0  0  0  0  0  0  0
   -8.8630   -4.8320   -9.5040   O 0  0  0  0  0  0  0  0  0  0  0  0
   -8.9060   -2.5050   -9.5630   O 0  0  0  0  0  0  0  0  0  0  0  0
   -9.2330   -0.9530   -9.5870   P 0  0  0  0  0  0  0  0  0  0  0  0
   -9.9230   -0.4610   -8.3430   O 0  0  0  0  0  0  0  0  0  0  0  0
   -9.6860   -0.4650  -10.9580   O 0  0  0  0  0  0  0  0  0  0  0  0
   -7.7760   -0.4430   -9.3470   O 0  0  0  0  0  0  0  0  0  0  0  0
   -7.5190    0.8920   -9.6480   C 0  0  0  0  0  0  0  0  0  0  0  0
   -5.2350    0.1790  -10.0480   N 0  0  0  0  0  0  0  0  0  0  0  0
   -4.4000    0.9770  -10.9280   C 0  0  0  0  0  0  0  0  0  0  0  0
   -4.1950    3.3690  -11.0420   O 0  0  0  0  0  0  0  0  0  0  0  0
   -5.0770    2.3120  -10.7700   C 0  0  0  0  0  0  0  0  0  0  0  0
   -4.6260    2.4730   -8.2660   O 0  0  0  0  0  0  0  0  0  0  0  0
   -5.6060    2.3430   -9.3290   C 0  0  0  0  0  0  0  0  0  0  0  0
   -6.0970    0.9590   -9.1730   C 0  0  0  0  0  0  0  0  0  0  0  0
  1  2  2  0  0  0  0
  1  6  1  0  0  0  0
  2  3  1  0  0  0  0
  3  4  2  0  0  0  0
  4  5  1  0  0  0  0
  4 10  1  0  0  0  0
  5  6  2  0  0  0  0
  5  8  1  0  0  0  0
  6  7  1  0  0  0  0
  8  9  2  0  0  0  0
  9 10  1  0  0  0  0
 10 11  1  0  0  0  0
 11 16  1  0  0  0  0
 11 12  1  0  0  0  0
 12 13  1  0  0  0  0
 12 14  1  0  0  0  0
 14 17  1  0  0  0  0
 14 15  1  0  0  0  0
 16 17  1  0  0  0  0
 17 18  1  0  0  0  0
 18 19  1  0  0  0  0
 19 20  1  0  0  0  0
 20 23  1  0  0  0  0
 20 21  2  0  0  0  0
 20 22  1  0  0  0  0
 23 24  1  0  0  0  0
 24 26  2  0  0  0  0
 24 25  1  0  0  0  0
 24 27  1  0  0  0  0
 27 28  1  0  0  0  0
 28 35  1  0  0  0  0
 29 35  1  0  0  0  0
 29 30  1  0  0  0  0
 30 32  1  0  0  0  0
 31 32  1  0  0  0  0
 32 34  1  0  0  0  0
 33 34  1  0  0  0  0
 34 35  1  0  0  0  0
M  END
>  <InstanceId>
6HH3_A1R_A_403

>  <ChemCompId>
A1R

>  <PdbId>
6HH3

>  <ChainId>
A

>  <ResidueNumber>
403

>  <InsertionCode>


>  <Model>
1

>  <AltIds>


>  <MissingHeavyAtoms>
0

>  <ObservedFormula>
C15 N6 O12 P2

>  <Name>
5'-O-[(S)-{[(S)-{[(2R,3R,4S)-3,4-DIHYDROXYPYRROLIDIN-2-YL]METHOXY}(HYDROXY)PHOSPHORYL]OXY}(HYDROXY)PHOSPHORYL]ADENOSINE

>  <SystematicName>
[(2R,3S,4R,5R)-5-(6-aminopurin-9-yl)-3,4-dihydroxy-oxolan-2-yl]methyl [[(2R,3R,4S)-3,4-dihydroxypyrrolidin-2-yl]methoxy-hydroxy-phosphoryl] hydrogen phosphate

>  <Synonyms>


>  <Type>
NON-POLYMER

>  <Formula>
C15 H24 N6 O12 P2

>  <MolecularWeight>
542.332

>  <ModifiedDate>
2011-06-04

>  <Parent>


>  <OneLetterCode>


>  <SubcomponentList>


>  <AmbiguousFlag>


>  <InChI>
InChI=1S/C15H24N6O12P2/c16-13-9-14(19-4-18-13)21(5-20-9)15-12(25)11(24)8(32-15)3-31-35(28,29)33-34(26,27)30-2-6-10(23)7(22)1-17-6/h4-8,10-12,15,17,22-25H,1-3H2,(H,26,27)(H,28,29)(H2,16,18,19)/t6-,7+,8-,10-,11-,12-,15-/m1/s1

>  <InChIKey>
NDQDTBCXPOIQGT-UHNJQBFTSA-N

>  <SMILES>
c1nc(c2c(n1)n(cn2)[C@H]3[C@@H]([C@@H]([C@H](O3)CO[P@](=O)(O)O[P@@](=O)(O)OC[C@@H]4[C@H]([C@H](CN4)O)O)O)O)N

$$$$
