5U13_YH5_A_301
  RCSB PDB08022003093D
Coordinates from PDB:5U13:A:301 Model:1 without hydrogens
 23 25  0  0  0  0            999 V2000
   10.3860    1.5700   23.7100   C 0  0  0  0  0  0  0  0  0  0  0  0
   10.1810    1.9890   22.5840   O 0  0  0  0  0  0  0  0  0  0  0  0
    8.4500   -0.0620   23.9330   N 0  0  0  0  0  0  0  0  0  0  0  0
    6.7910   -1.9300   25.2080   S 0  0  0  0  0  0  0  0  0  0  0  0
    4.7390   -4.4780   19.7030   C 0  0  0  0  0  0  0  0  0  0  0  0
    3.6930   -3.5930   19.4990   C 0  0  0  0  0  0  0  0  0  0  0  0
    3.4920   -2.5250   20.3430   C 0  0  0  0  0  0  0  0  0  0  0  0
    4.3390   -2.3360   21.3970   C 0  0  0  0  0  0  0  0  0  0  0  0
    2.4410   -5.0870   18.2200   C 0  0  0  0  0  0  0  0  0  0  0  0
    8.9730   -0.6750   26.0520   N 0  0  0  0  0  0  0  0  0  0  0  0
    9.5710    0.5920   24.3880   C 0  0  0  0  0  0  0  0  0  0  0  0
    7.2580   -3.8490   22.8650   O 0  0  0  0  0  0  0  0  0  0  0  0
   10.9210    0.6330   26.4480   N 0  0  0  0  0  0  0  0  0  0  0  0
    8.1220   -0.8130   24.9810   C 0  0  0  0  0  0  0  0  0  0  0  0
    2.7870   -3.7140   18.4480   O 0  0  0  0  0  0  0  0  0  0  0  0
    9.9090    0.2300   25.6700   C 0  0  0  0  0  0  0  0  0  0  0  0
   11.4310    1.9670   24.5300   N 0  0  0  0  0  0  0  0  0  0  0  0
   11.6730    1.5130   25.8510   C 0  0  0  0  0  0  0  0  0  0  0  0
   12.7670    2.0910   26.4690   N 0  0  0  0  0  0  0  0  0  0  0  0
    6.0010   -1.8620   23.6000   C 0  0  0  0  0  0  0  0  0  0  0  0
    6.3270   -3.0540   22.7260   C 0  0  0  0  0  0  0  0  0  0  0  0
    5.3860   -3.2180   21.6060   C 0  0  0  0  0  0  0  0  0  0  0  0
    5.5850   -4.2830   20.7640   C 0  0  0  0  0  0  0  0  0  0  0  0
  9 15  1  0  0  0  0
 15  6  1  0  0  0  0
  6  5  2  0  0  0  0
  6  7  1  0  0  0  0
  5 23  1  0  0  0  0
  7  8  2  0  0  0  0
 23 22  2  0  0  0  0
  8 22  1  0  0  0  0
 22 21  1  0  0  0  0
  2  1  2  0  0  0  0
 21 12  2  0  0  0  0
 21 20  1  0  0  0  0
 20  4  1  0  0  0  0
  1 11  1  0  0  0  0
  1 17  1  0  0  0  0
  3 11  1  0  0  0  0
  3 14  2  0  0  0  0
 11 16  2  0  0  0  0
 17 18  1  0  0  0  0
 14  4  1  0  0  0  0
 14 10  1  0  0  0  0
 16 10  1  0  0  0  0
 16 13  1  0  0  0  0
 18 13  2  0  0  0  0
 18 19  1  0  0  0  0
M  END
>  <InstanceId>
5U13_YH5_A_301

>  <ChemCompId>
YH5

>  <PdbId>
5U13

>  <ChainId>
A

>  <ResidueNumber>
301

>  <InsertionCode>


>  <Model>
1

>  <AltIds>


>  <MissingHeavyAtoms>
0

>  <ObservedFormula>
C14 N5 O3 S

>  <Name>
2-amino-8-{[2-(4-methoxyphenyl)-2-oxoethyl]sulfanyl}-1,9-dihydro-6H-purin-6-one

>  <SystematicName>
2-azanyl-8-[2-(4-methoxyphenyl)-2-oxidanylidene-ethyl]sulfanyl-1,9-dihydropurin-6-one

>  <Synonyms>


>  <Type>
NON-POLYMER

>  <Formula>
C14 H13 N5 O3 S

>  <MolecularWeight>
331.35

>  <ModifiedDate>
2016-12-08

>  <Parent>


>  <OneLetterCode>


>  <SubcomponentList>


>  <AmbiguousFlag>
N

>  <InChI>
InChI=1S/C14H13N5O3S/c1-22-8-4-2-7(3-5-8)9(20)6-23-14-16-10-11(18-14)17-13(15)19-12(10)21/h2-5H,6H2,1H3,(H4,15,16,17,18,19,21)

>  <InChIKey>
SQNJCPSJSYBCFC-UHFFFAOYSA-N

>  <SMILES>
COc1ccc(cc1)C(=O)CSc2[nH]c3c(n2)C(=O)NC(=N3)N

$$$$
