6EPA_BNQ_A_204
  RCSB PDB08022004333D
Coordinates from PDB:6EPA:A:204 Model:1 without hydrogens
 26 29  0  0  0  0            999 V2000
   -7.4790  -10.2110   12.2470   C 0  0  0  0  0  0  0  0  0  0  0  0
   -8.8890   -3.5920   10.6180   C 0  0  0  0  0  0  0  0  0  0  0  0
   -6.4550   -3.6170    9.8500   C 0  0  0  0  0  0  0  0  0  0  0  0
   -4.9390   -4.7230    8.3370   C 0  0  0  0  0  0  0  0  0  0  0  0
   -5.6570   -4.0360   10.9080   C 0  0  0  0  0  0  0  0  0  0  0  0
   -7.3800   -1.5650   10.9670   C 0  0  0  0  0  0  0  0  0  0  0  0
   -7.1540   -0.3190   10.3970   C 0  0  0  0  0  0  0  0  0  0  0  0
   -6.7810    0.6440   12.5590   C 0  0  0  0  0  0  0  0  0  0  0  0
   -7.2940   -1.6860   12.3480   C 0  0  0  0  0  0  0  0  0  0  0  0
   -8.5910   -6.8450   12.3480   C 0  0  0  0  0  0  0  0  0  0  0  0
   -9.3570   -9.0040   13.1450   C 0  0  0  0  0  0  0  0  0  0  0  0
   -9.8920  -10.1800   13.6550   C 0  0  0  0  0  0  0  0  0  0  0  0
   -9.2100  -11.3690   13.4520   C 0  0  0  0  0  0  0  0  0  0  0  0
   -8.0170  -11.3820   12.7550   C 0  0  0  0  0  0  0  0  0  0  0  0
   -8.1500   -9.0010   12.4390   C 0  0  0  0  0  0  0  0  0  0  0  0
   -8.5540   -5.0650   10.7340   C 0  0  0  0  0  0  0  0  0  0  0  0
   -7.6970   -2.7690   10.0880   C 0  0  0  0  0  0  0  0  0  0  0  0
   -6.0740   -3.9640    8.5600   C 0  0  0  0  0  0  0  0  0  0  0  0
   -4.1630   -5.1410    9.3980   C 0  0  0  0  0  0  0  0  0  0  0  0
   -4.5240   -4.7970   10.6830   C 0  0  0  0  0  0  0  0  0  0  0  0
   -6.8590    0.7770   11.1880   C 0  0  0  0  0  0  0  0  0  0  0  0
   -6.9990   -0.5890   13.1380   C 0  0  0  0  0  0  0  0  0  0  0  0
   -7.7290   -7.7530   11.9850   N 0  0  0  0  0  0  0  0  0  0  0  0
   -8.4100   -5.5230   12.0120   N 0  0  0  0  0  0  0  0  0  0  0  0
   -8.6620   -5.8240    9.7740   O 0  0  0  0  0  0  0  0  0  0  0  0
   -9.9880   -7.3830   13.2450   S 0  0  0  0  0  0  0  0  0  0  0  0
  4 18  2  0  0  0  0
  4 19  1  0  0  0  0
 18  3  1  0  0  0  0
 19 20  2  0  0  0  0
 25 16  2  0  0  0  0
  3 17  1  0  0  0  0
  3  5  2  0  0  0  0
 17  2  1  0  0  0  0
 17  6  1  0  0  0  0
  7  6  2  0  0  0  0
  7 21  1  0  0  0  0
  2 16  1  0  0  0  0
 20  5  1  0  0  0  0
 16 24  1  0  0  0  0
  6  9  1  0  0  0  0
 21  8  2  0  0  0  0
 23 10  2  0  0  0  0
 23 15  1  0  0  0  0
 24 10  1  0  0  0  0
  1 15  2  0  0  0  0
  1 14  1  0  0  0  0
  9 22  2  0  0  0  0
 10 26  1  0  0  0  0
 15 11  1  0  0  0  0
  8 22  1  0  0  0  0
 14 13  2  0  0  0  0
 11 26  1  0  0  0  0
 11 12  2  0  0  0  0
 13 12  1  0  0  0  0
M  END
>  <InstanceId>
6EPA_BNQ_A_204

>  <ChemCompId>
BNQ

>  <PdbId>
6EPA

>  <ChainId>
A

>  <ResidueNumber>
204

>  <InsertionCode>


>  <Model>
1

>  <AltIds>


>  <MissingHeavyAtoms>
0

>  <ObservedFormula>
C22 N2 O S

>  <Name>
~{N}-(1,3-benzothiazol-2-yl)-3,3-diphenyl-propanamide

>  <SystematicName>
~{N}-(1,3-benzothiazol-2-yl)-3,3-diphenyl-propanamide

>  <Synonyms>


>  <Type>
NON-POLYMER

>  <Formula>
C22 H18 N2 O S

>  <MolecularWeight>
358.456

>  <ModifiedDate>
2018-08-24

>  <Parent>


>  <OneLetterCode>


>  <SubcomponentList>


>  <AmbiguousFlag>
N

>  <InChI>
InChI=1S/C22H18N2OS/c25-21(24-22-23-19-13-7-8-14-20(19)26-22)15-18(16-9-3-1-4-10-16)17-11-5-2-6-12-17/h1-14,18H,15H2,(H,23,24,25)

>  <InChIKey>
GYQWKTIZRYVFEM-UHFFFAOYSA-N

>  <SMILES>
c1ccc(cc1)C(CC(=O)Nc2nc3ccccc3s2)c4ccccc4

$$$$
