4I72_UA2_A_402
  RCSB PDB08012021593D
Coordinates from PDB:4I72:A:402 Model:1 without hydrogens
 19 21  0  0  0  0            999 V2000
   19.1230   41.9300   11.7770   C 0  0  0  0  0  0  0  0  0  0  0  0
   19.8260   44.0750   11.3100   C 0  0  0  0  0  0  0  0  0  0  0  0
   20.5780   44.1510   12.5570   C 0  0  0  0  0  0  0  0  0  0  0  0
   20.4950   42.9630   13.4040   C 0  0  0  0  0  0  0  0  0  0  0  0
   21.2060   49.1660   10.8210   O 0  0  0  0  0  0  0  0  0  0  0  0
   19.7790   48.9240   10.7090   C 0  0  0  0  0  0  0  0  0  0  0  0
   19.4520   48.3070    9.3580   C 0  0  0  0  0  0  0  0  0  0  0  0
   20.2460   47.1220    9.1260   N 0  0  0  0  0  0  0  0  0  0  0  0
   18.0300   47.7530    9.2920   C 0  0  0  0  0  0  0  0  0  0  0  0
   17.5010   48.0540    7.9860   O 0  0  0  0  0  0  0  0  0  0  0  0
   18.1120   46.2620    9.6680   C 0  0  0  0  0  0  0  0  0  0  0  0
   17.2320   45.4800    8.8890   O 0  0  0  0  0  0  0  0  0  0  0  0
   19.5810   45.8700    9.4330   C 0  0  0  0  0  0  0  0  0  0  0  0
   20.1210   45.3750   10.7010   C 0  0  0  0  0  0  0  0  0  0  0  0
   19.1410   42.9900   10.9290   N 0  0  0  0  0  0  0  0  0  0  0  0
   19.7550   41.9240   12.9590   N 0  0  0  0  0  0  0  0  0  0  0  0
   20.9270   46.1020   11.5690   C 0  0  0  0  0  0  0  0  0  0  0  0
   21.1810   45.3390   12.6610   N 0  0  0  0  0  0  0  0  0  0  0  0
   21.1540   42.9600   14.5790   N 0  0  0  0  0  0  0  0  0  0  0  0
  1 16  2  0  0  0  0
  1 15  1  0  0  0  0
  2 15  2  0  0  0  0
  2  3  1  0  0  0  0
  2 14  1  0  0  0  0
  3  4  2  0  0  0  0
  3 18  1  0  0  0  0
  4 16  1  0  0  0  0
  4 19  1  0  0  0  0
  5  6  1  0  0  0  0
  6  7  1  0  0  0  0
  7  9  1  0  0  0  0
  7  8  1  0  0  0  0
  8 13  1  0  0  0  0
  9 10  1  0  0  0  0
  9 11  1  0  0  0  0
 11 12  1  0  0  0  0
 11 13  1  0  0  0  0
 13 14  1  0  0  0  0
 14 17  2  0  0  0  0
 17 18  1  0  0  0  0
M  END
>  <InstanceId>
4I72_UA2_A_402

>  <ChemCompId>
UA2

>  <PdbId>
4I72

>  <ChainId>
A

>  <ResidueNumber>
402

>  <InsertionCode>


>  <Model>
1

>  <AltIds>


>  <MissingHeavyAtoms>
0

>  <ObservedFormula>
C11 N5 O3

>  <Name>
3,4-PYRROLIDINEDIOL,2-(4-AMINO-5H-PYRROLO[3,2-D]PYRIMIDIN-7-YL)-5-(HYDROXYMETHYL)-2S,3S,4R,5R

>  <SystematicName>
(2S,3S,4R,5R)-2-(4-azanyl-5H-pyrrolo[3,2-d]pyrimidin-7-yl)-5-(hydroxymethyl)pyrrolidine-3,4-diol

>  <Synonyms>


>  <Type>
NON-POLYMER

>  <Formula>
C11 H15 N5 O3

>  <MolecularWeight>
265.269

>  <ModifiedDate>
2012-12-06

>  <Parent>


>  <OneLetterCode>


>  <SubcomponentList>


>  <AmbiguousFlag>
N

>  <InChI>
InChI=1S/C11H15N5O3/c12-11-8-6(14-3-15-11)4(1-13-8)7-10(19)9(18)5(2-17)16-7/h1,3,5,7,9-10,13,16-19H,2H2,(H2,12,14,15)/t5-,7+,9-,10+/m1/s1

>  <InChIKey>
AMFDITJFBUXZQN-KUBHLMPHSA-N

>  <SMILES>
c1c(c2c([nH]1)c(ncn2)N)[C@H]3[C@@H]([C@@H]([C@H](N3)CO)O)O

$$$$
