4PZV_J1D_A_501
  RCSB PDB08012022563D
Coordinates from PDB:4PZV:A:501 Model:1 without hydrogens
 44 48  0  0  0  0            999 V2000
   -2.0630   31.4950  -12.9920   C 0  0  0  0  0  0  0  0  0  0  0  0
   -1.9750   30.3420  -13.8190   O 0  0  0  0  0  0  0  0  0  0  0  0
   -3.4460   31.4120  -12.3230   C 0  0  0  0  0  0  0  0  0  0  0  0
   -3.9050   32.7060  -12.1450   O 0  0  0  0  0  0  0  0  0  0  0  0
   -4.3070   30.6720  -13.3730   C 0  0  0  0  0  0  0  0  0  0  0  0
   -5.0010   31.5970  -14.1330   O 0  0  0  0  0  0  0  0  0  0  0  0
   -3.2540   30.0540  -14.3330   C 0  0  0  0  0  0  0  0  0  0  0  0
   -3.4090   28.6030  -14.4060   N 0  0  0  0  0  0  0  0  0  0  0  0
   -3.5610   27.8140  -15.5610   C 0  0  0  0  0  0  0  0  0  0  0  0
   -3.6690   26.5240  -15.3000   N 0  0  0  0  0  0  0  0  0  0  0  0
   -3.6100   26.4450  -13.9150   C 0  0  0  0  0  0  0  0  0  0  0  0
   -3.6700   25.3740  -13.0430   C 0  0  0  0  0  0  0  0  0  0  0  0
   -3.8370   24.1090  -13.5070   N 0  0  0  0  0  0  0  0  0  0  0  0
   -3.5530   25.6040  -11.6920   N 0  0  0  0  0  0  0  0  0  0  0  0
   -3.4090   26.8800  -11.2830   C 0  0  0  0  0  0  0  0  0  0  0  0
   -3.3330   28.0090  -11.9970   N 0  0  0  0  0  0  0  0  0  0  0  0
   -3.4370   27.7380  -13.3320   C 0  0  0  0  0  0  0  0  0  0  0  0
   -0.9660   31.4990  -11.9610   C 0  0  0  0  0  0  0  0  0  0  0  0
    0.6050   31.6870  -12.6900   S 0  0  0  0  0  0  0  0  0  0  0  0
    1.6320   32.0470  -11.6660   C 0  0  0  0  0  0  0  0  0  0  0  0
    2.3120   29.9840  -10.8350   N 0  0  0  0  0  0  0  0  0  0  0  0
    1.7080   31.2780  -10.4670   C 0  0  0  0  0  0  0  0  0  0  0  0
    3.4500   29.4730  -10.2390   C 0  0  0  0  0  0  0  0  0  0  0  0
    3.8050   28.1220  -10.8290   C 0  0  0  0  0  0  0  0  0  0  0  0
    5.0640   27.6000  -10.3430   N 0  0  0  0  0  0  0  0  0  0  0  0
    6.2440   28.2680  -10.5080   C 0  0  0  0  0  0  0  0  0  0  0  0
    6.3380   29.3620  -11.0840   O 0  0  0  0  0  0  0  0  0  0  0  0
   10.7130   25.3920   -8.6890   N 0  0  0  0  0  0  0  0  0  0  0  0
   10.4240   24.3970   -7.7890   C 0  0  0  0  0  0  0  0  0  0  0  0
   11.4340   23.5750   -7.3540   N 0  0  0  0  0  0  0  0  0  0  0  0
    9.1810   24.1200   -7.2550   N 0  0  0  0  0  0  0  0  0  0  0  0
    8.1020   24.9050   -7.6520   C 0  0  0  0  0  0  0  0  0  0  0  0
    6.9260   24.6130   -7.1180   O 0  0  0  0  0  0  0  0  0  0  0  0
    7.2330   26.7160   -8.9580   N 0  0  0  0  0  0  0  0  0  0  0  0
    7.4370   27.5710   -9.9440   C 0  0  0  0  0  0  0  0  0  0  0  0
    8.7580   28.0450  -10.4270   C 0  0  0  0  0  0  0  0  0  0  0  0
    8.9820   29.4470   -9.8960   C 0  0  0  0  0  0  0  0  0  0  0  0
    8.7970   27.9740  -11.9510   C 0  0  0  0  0  0  0  0  0  0  0  0
    9.8520   27.1660   -9.9370   N 0  0  0  0  0  0  0  0  0  0  0  0
    9.6390   26.1570   -9.0610   C 0  0  0  0  0  0  0  0  0  0  0  0
    8.3090   25.9500   -8.5660   C 0  0  0  0  0  0  0  0  0  0  0  0
    4.0830   30.0370   -9.3480   O 0  0  0  0  0  0  0  0  0  0  0  0
    0.7660   32.4480  -14.1060   O 0  0  0  0  0  0  0  0  0  0  0  0
    0.9110   30.1930  -13.2560   O 0  0  0  0  0  0  0  0  0  0  0  0
 30 29  1  0  0  0  0
 29 31  1  0  0  0  0
 29 28  2  0  0  0  0
 31 32  1  0  0  0  0
 28 40  1  0  0  0  0
 32 33  2  0  0  0  0
 32 41  1  0  0  0  0
 40 39  1  0  0  0  0
 40 41  2  0  0  0  0
 39 36  1  0  0  0  0
 41 34  1  0  0  0  0
 38 36  1  0  0  0  0
 34 35  2  0  0  0  0
 36 35  1  0  0  0  0
 36 37  1  0  0  0  0
 35 26  1  0  0  0  0
 42 23  2  0  0  0  0
 26 25  1  0  0  0  0
 26 27  2  0  0  0  0
 25 24  1  0  0  0  0
 13 12  1  0  0  0  0
 23 24  1  0  0  0  0
 23 21  1  0  0  0  0
 12 14  2  0  0  0  0
 12 11  1  0  0  0  0
 14 15  1  0  0  0  0
 10 11  1  0  0  0  0
 10  9  2  0  0  0  0
 20 22  1  0  0  0  0
 20 19  1  0  0  0  0
 11 17  2  0  0  0  0
 21 22  1  0  0  0  0
 15 16  2  0  0  0  0
  9  8  1  0  0  0  0
 43 19  2  0  0  0  0
 18 19  1  0  0  0  0
 18  1  1  0  0  0  0
 17 16  1  0  0  0  0
 17  8  1  0  0  0  0
 19 44  2  0  0  0  0
  8  7  1  0  0  0  0
  3  1  1  0  0  0  0
  3  4  1  0  0  0  0
  3  5  1  0  0  0  0
  1  2  1  0  0  0  0
  2  7  1  0  0  0  0
  7  5  1  0  0  0  0
  5  6  1  0  0  0  0
M  END
>  <InstanceId>
4PZV_J1D_A_501

>  <ChemCompId>
J1D

>  <PdbId>
4PZV

>  <ChainId>
A

>  <ResidueNumber>
501

>  <InsertionCode>


>  <Model>
1

>  <AltIds>


>  <MissingHeavyAtoms>
0

>  <ObservedFormula>
C23 N12 O8 S

>  <Name>
5'-{[2-({N-[(2-amino-7,7-dimethyl-4-oxo-3,4,7,8-tetrahydropteridin-6-yl)carbonyl]glycyl}amino)ethyl]sulfonyl}-5'-deoxyadenosine

>  <SystematicName>
N-[2-[2-[[(2S,3S,4R,5R)-5-(6-aminopurin-9-yl)-3,4-bis(oxidanyl)oxolan-2-yl]methylsulfonyl]ethylamino]-2-oxidanylidene-ethyl]-2-azanyl-7,7-dimethyl-4-oxidanylidene-3,8-dihydropteridine-6-carboxamide

>  <Synonyms>


>  <Type>
NON-POLYMER

>  <Formula>
C23 H30 N12 O8 S

>  <MolecularWeight>
634.625

>  <ModifiedDate>
2012-07-06

>  <Parent>


>  <OneLetterCode>


>  <SubcomponentList>


>  <AmbiguousFlag>
N

>  <InChI>
InChI=1S/C23H30N12O8S/c1-23(2)15(31-12-17(34-23)32-22(25)33-19(12)39)20(40)27-5-10(36)26-3-4-44(41,42)6-9-13(37)14(38)21(43-9)35-8-30-11-16(24)28-7-29-18(11)35/h7-9,13-14,21,37-38H,3-6H2,1-2H3,(H,26,36)(H,27,40)(H2,24,28,29)(H4,25,32,33,34,39)/t9-,13-,14-,21-/m1/s1

>  <InChIKey>
QCWCABDSXQYDST-GWKRVTOESA-N

>  <SMILES>
CC1(C(=NC2=C(N1)N=C(NC2=O)N)C(=O)NCC(=O)NCCS(=O)(=O)C[C@@H]3[C@H]([C@H]([C@@H](O3)n4cnc5c4ncnc5N)O)O)C

$$$$
