3IBL_O59_A_300
  RCSB PDB08012019193D
Coordinates from PDB:3IBL:A:300 Model:1 without hydrogens
 18 17  0  0  0  0            999 V2000
   -4.7710    1.9230   14.5970   C 0  0  0  0  0  0  0  0  0  0  0  0
   -5.3700   -0.4660   16.2230   N 0  0  0  0  0  0  0  0  0  0  0  0
   -7.1920    1.1550   16.3950   O 0  0  0  0  0  0  0  0  0  0  0  0
   -5.8350    0.9300   16.7690   S 0  0  0  0  0  0  0  0  0  0  0  0
   -4.1010    3.1800   14.1260   C 0  0  0  0  0  0  0  0  0  0  0  0
   -0.9460   11.6960   11.9910   N 0  0  0  0  0  0  0  0  0  0  0  0
   -5.4500    1.0310   18.1450   O 0  0  0  0  0  0  0  0  0  0  0  0
   -1.6330   11.7780   13.4050   S 0  0  0  0  0  0  0  0  0  0  0  0
   -4.9880    4.3970   14.1490   C 0  0  0  0  0  0  0  0  0  0  0  0
   -5.0200    2.0690   16.0500   O 0  0  0  0  0  0  0  0  0  0  0  0
   -4.3700    5.6210   13.5210   C 0  0  0  0  0  0  0  0  0  0  0  0
   -1.9850   10.3210   13.9010   O 0  0  0  0  0  0  0  0  0  0  0  0
   -3.2310    6.2150   14.3050   C 0  0  0  0  0  0  0  0  0  0  0  0
   -0.6810   12.2730   14.3520   O 0  0  0  0  0  0  0  0  0  0  0  0
   -2.4360    7.2380   13.5510   C 0  0  0  0  0  0  0  0  0  0  0  0
   -2.9000   12.4200   13.2530   O 0  0  0  0  0  0  0  0  0  0  0  0
   -1.5010    8.0300   14.4230   C 0  0  0  0  0  0  0  0  0  0  0  0
   -0.9550    9.2670   13.7690   C 0  0  0  0  0  0  0  0  0  0  0  0
  1  5  1  0  0  0  0
  1 10  1  0  0  0  0
  2  4  1  0  0  0  0
  3  4  2  0  0  0  0
  4  7  2  0  0  0  0
  4 10  1  0  0  0  0
  5  9  1  0  0  0  0
  6  8  1  0  0  0  0
  8 12  1  0  0  0  0
  8 14  2  0  0  0  0
  8 16  2  0  0  0  0
  9 11  1  0  0  0  0
 11 13  1  0  0  0  0
 12 18  1  0  0  0  0
 13 15  1  0  0  0  0
 15 17  1  0  0  0  0
 17 18  1  0  0  0  0
M  END
>  <InstanceId>
3IBL_O59_A_300

>  <ChemCompId>
O59

>  <PdbId>
3IBL

>  <ChainId>
A

>  <ResidueNumber>
300

>  <InsertionCode>


>  <Model>
1

>  <AltIds>


>  <MissingHeavyAtoms>
0

>  <ObservedFormula>
C8 N2 O6 S2

>  <Name>
octane-1,8-diyl disulfamate

>  <SystematicName>
8-sulfamoyloxyoctyl sulfamate

>  <Synonyms>
1,8-Octanediol disulfamate

>  <Type>
NON-POLYMER

>  <Formula>
C8 H20 N2 O6 S2

>  <MolecularWeight>
304.384

>  <ModifiedDate>
2020-06-17

>  <Parent>


>  <OneLetterCode>


>  <SubcomponentList>


>  <AmbiguousFlag>
N

>  <InChI>
InChI=1S/C8H20N2O6S2/c9-17(11,12)15-7-5-3-1-2-4-6-8-16-18(10,13)14/h1-8H2,(H2,9,11,12)(H2,10,13,14)

>  <InChIKey>
IPTXSYCLIWBHBX-UHFFFAOYSA-N

>  <SMILES>
C(CCCCOS(=O)(=O)N)CCCOS(=O)(=O)N

$$$$
