5BWC_HBP_A_603
  RCSB PDB08022000543D
Coordinates from PDB:5BWC:A:603 Model:1 without hydrogens
 25 26  0  0  0  0            999 V2000
   59.0520  -33.1260   -1.2610   C 0  0  0  0  0  0  0  0  0  0  0  0
   58.1930  -35.4650   -0.8020   C 0  0  0  0  0  0  0  0  0  0  0  0
   62.0340  -33.5660   -5.3320   O 0  0  0  0  0  0  0  0  0  0  0  0
   61.1030  -32.6050   -4.9510   N 0  0  0  0  0  0  0  0  0  0  0  0
   60.4700  -32.7650   -3.8740   C 0  0  0  0  0  0  0  0  0  0  0  0
   59.4790  -31.7750   -3.3860   C 0  0  0  0  0  0  0  0  0  0  0  0
   59.2130  -30.6390   -4.1510   C 0  0  0  0  0  0  0  0  0  0  0  0
   57.6630  -29.9110   -2.4850   C 0  0  0  0  0  0  0  0  0  0  0  0
   57.9350  -31.0450   -1.7250   C 0  0  0  0  0  0  0  0  0  0  0  0
   58.8170  -31.9640   -2.1410   N 0  3  0  0  0  0  0  0  0  0  0  0
   57.8770  -34.0810   -1.3610   C 0  0  0  0  0  0  0  0  0  0  0  0
   58.2980  -29.7090   -3.7010   C 0  0  0  0  0  0  0  0  0  0  0  0
   56.9280  -36.3070   -0.9210   C 0  0  0  0  0  0  0  0  0  0  0  0
   56.5550  -37.1500    0.2890   C 0  0  0  0  0  0  0  0  0  0  0  0
   56.5110  -36.3700    1.5910   C 0  0  0  0  0  0  0  0  0  0  0  0
   55.1770  -36.3870    2.3570   C 0  0  0  0  0  0  0  0  0  0  0  0
   55.2850  -37.0280    3.6890   N 0  3  0  0  0  0  0  0  0  0  0  0
   54.3290  -37.9240    4.0110   C 0  0  0  0  0  0  0  0  0  0  0  0
   54.3410  -38.5860    5.2350   C 0  0  0  0  0  0  0  0  0  0  0  0
   55.3380  -38.3230    6.1580   C 0  0  0  0  0  0  0  0  0  0  0  0
   56.3130  -37.3940    5.8280   C 0  0  0  0  0  0  0  0  0  0  0  0
   56.2710  -36.7310    4.5940   C 0  0  0  0  0  0  0  0  0  0  0  0
   57.3910  -35.7960    4.2870   C 0  0  0  0  0  0  0  0  0  0  0  0
   58.4430  -35.7890    4.9830   N 0  0  0  0  0  0  0  0  0  0  0  0
   59.4760  -34.9400    4.5970   O 0  0  0  0  0  0  0  0  0  0  0  0
  1 10  1  0  0  0  0
  1 11  1  0  0  0  0
  2 11  1  0  0  0  0
  2 13  1  0  0  0  0
  3  4  1  0  0  0  0
  4  5  2  0  0  0  0
  5  6  1  0  0  0  0
  6  7  2  0  0  0  0
  6 10  1  0  0  0  0
  7 12  1  0  0  0  0
  8  9  1  0  0  0  0
  8 12  2  0  0  0  0
  9 10  2  0  0  0  0
 13 14  1  0  0  0  0
 14 15  1  0  0  0  0
 15 16  1  0  0  0  0
 16 17  1  0  0  0  0
 17 18  1  0  0  0  0
 17 22  2  0  0  0  0
 18 19  2  0  0  0  0
 19 20  1  0  0  0  0
 20 21  2  0  0  0  0
 21 22  1  0  0  0  0
 22 23  1  0  0  0  0
 23 24  2  0  0  0  0
 24 25  1  0  0  0  0
M  CHG  2  10   1  17   1
M  END
>  <InstanceId>
5BWC_HBP_A_603

>  <ChemCompId>
HBP

>  <PdbId>
5BWC

>  <ChainId>
A

>  <ResidueNumber>
603

>  <InsertionCode>


>  <Model>
1

>  <AltIds>


>  <MissingHeavyAtoms>
0

>  <ObservedFormula>
C19 N4 O2

>  <Name>
1,7-HEPTYLENE-BIS-N,N'-SYN-2-PYRIDINIUMALDOXIME

>  <SystematicName>
(NE)-N-[[1-[7-[2-[(E)-hydroxyiminomethyl]pyridin-1-ium-1-yl]heptyl]pyridin-1-ium-2-yl]methylidene]hydroxylamine

>  <Synonyms>


>  <Type>
NON-POLYMER

>  <Formula>
C19 H26 N4 O2

>  <MolecularWeight>
342.435

>  <ModifiedDate>
2011-06-04

>  <Parent>


>  <OneLetterCode>


>  <SubcomponentList>


>  <AmbiguousFlag>
N

>  <InChI>
InChI=1S/C19H24N4O2/c24-20-16-18-10-4-8-14-22(18)12-6-2-1-3-7-13-23-15-9-5-11-19(23)17-21-25/h4-5,8-11,14-17H,1-3,6-7,12-13H2/p+2

>  <InChIKey>
NJSMUQMHXZRXQC-UHFFFAOYSA-P

>  <SMILES>
c1cc[n+](c(c1)\C=N\O)CCCCCCC[n+]2ccccc2\C=N\O

$$$$
