1GRP_ICT_A_418
  RCSB PDB08012015003D
Coordinates from PDB:1GRP:A:418 Model:1 without hydrogens
 13 12  0  0  0  0            999 V2000
   85.3340   67.4820    3.4280   C 0  0  0  0  0  0  0  0  0  0  0  0
   85.8940   66.7740    4.2520   O 0  0  0  0  0  0  0  0  0  0  0  0
   84.8120   68.5500    3.7260   O 0  0  0  0  0  0  0  0  0  0  0  0
   85.2860   66.9910    1.9840   C 0  0  0  0  0  0  0  0  0  0  0  0
   84.8980   68.0580    1.1360   O 0  0  0  0  0  0  0  0  0  0  0  0
   84.3130   65.8010    1.8310   C 0  0  0  0  0  0  0  0  0  0  0  0
   84.3210   65.2300    0.4060   C 0  0  0  0  0  0  0  0  0  0  0  0
   85.1940   64.0140    0.2250   C 0  0  0  0  0  0  0  0  0  0  0  0
   86.2050   64.1000   -0.4670   O 0  0  0  0  0  0  0  0  0  0  0  0
   84.8440   62.9760    0.7710   O 0  0  0  0  0  0  0  0  0  0  0  0
   82.8650   66.2010    2.1800   C 0  0  0  0  0  0  0  0  0  0  0  0
   82.5580   66.2640    3.3680   O 0  0  0  0  0  0  0  0  0  0  0  0
   82.0430   66.4310    1.2920   O 0  0  0  0  0  0  0  0  0  0  0  0
  1  2  2  0  0  0  0
  1  3  1  0  0  0  0
  1  4  1  0  0  0  0
  4  5  1  0  0  0  0
  4  6  1  0  0  0  0
  6  7  1  0  0  0  0
  6 11  1  0  0  0  0
  7  8  1  0  0  0  0
  8  9  2  0  0  0  0
  8 10  1  0  0  0  0
 11 12  2  0  0  0  0
 11 13  1  0  0  0  0
M  END
>  <InstanceId>
1GRP_ICT_A_418

>  <ChemCompId>
ICT

>  <PdbId>
1GRP

>  <ChainId>
A

>  <ResidueNumber>
418

>  <InsertionCode>


>  <Model>
1

>  <AltIds>


>  <MissingHeavyAtoms>
0

>  <ObservedFormula>
C6 O7

>  <Name>
ISOCITRIC ACID

>  <SystematicName>
(1R,2S)-1-hydroxypropane-1,2,3-tricarboxylic acid

>  <Synonyms>


>  <Type>
NON-POLYMER

>  <Formula>
C6 H8 O7

>  <MolecularWeight>
192.124

>  <ModifiedDate>
2011-06-04

>  <Parent>


>  <OneLetterCode>


>  <SubcomponentList>


>  <AmbiguousFlag>
N

>  <InChI>
InChI=1S/C6H8O7/c7-3(8)1-2(5(10)11)4(9)6(12)13/h2,4,9H,1H2,(H,7,8)(H,10,11)(H,12,13)/t2-,4+/m0/s1

>  <InChIKey>
ODBLHEXUDAPZAU-ZAFYKAAXSA-N

>  <SMILES>
C([C@@H]([C@H](C(=O)O)O)C(=O)O)C(=O)O

$$$$
