3PCG_4HP_M_550
  RCSB PDB08012020073D
Coordinates from PDB:3PCG:M:550 Model:1 without hydrogens
 11 11  0  0  0  0            999 V2000
   15.5990   13.7890   40.4550   C 0  0  0  0  0  0  0  0  0  0  0  0
   16.7700   13.6750   40.0290   O 0  0  0  0  0  0  0  0  0  0  0  0
   15.3480   14.4780   41.4700   O 0  0  0  0  0  0  0  0  0  0  0  0
   14.4470   12.9200   39.8720   C 0  0  0  0  0  0  0  0  0  0  0  0
   14.4130   11.5380   40.5330   C 0  0  0  0  0  0  0  0  0  0  0  0
   15.1060   10.4510   39.9400   C 0  0  0  0  0  0  0  0  0  0  0  0
   15.1060    9.1960   40.5500   C 0  0  0  0  0  0  0  0  0  0  0  0
   14.4920    9.0650   41.8080   C 0  0  0  0  0  0  0  0  0  0  0  0
   13.8350   10.1460   42.4160   C 0  0  0  0  0  0  0  0  0  0  0  0
   13.8000   11.3790   41.7800   C 0  0  0  0  0  0  0  0  0  0  0  0
   14.4770    7.9050   42.5200   O 0  0  0  0  0  0  0  0  0  0  0  0
  1  2  2  0  0  0  0
  1  3  1  0  0  0  0
  1  4  1  0  0  0  0
  4  5  1  0  0  0  0
  5  6  1  0  0  0  0
  5 10  2  0  0  0  0
  6  7  2  0  0  0  0
  7  8  1  0  0  0  0
  8  9  2  0  0  0  0
  8 11  1  0  0  0  0
  9 10  1  0  0  0  0
M  END
>  <InstanceId>
3PCG_4HP_M_550

>  <ChemCompId>
4HP

>  <PdbId>
3PCG

>  <ChainId>
M

>  <ResidueNumber>
550

>  <InsertionCode>


>  <Model>
1

>  <AltIds>


>  <MissingHeavyAtoms>
0

>  <ObservedFormula>
C8 O3

>  <Name>
4-HYDROXYPHENYLACETATE

>  <SystematicName>
2-(4-hydroxyphenyl)ethanoic acid

>  <Synonyms>


>  <Type>
NON-POLYMER

>  <Formula>
C8 H8 O3

>  <MolecularWeight>
152.147

>  <ModifiedDate>
2011-06-04

>  <Parent>


>  <OneLetterCode>


>  <SubcomponentList>


>  <AmbiguousFlag>
N

>  <InChI>
InChI=1S/C8H8O3/c9-7-3-1-6(2-4-7)5-8(10)11/h1-4,9H,5H2,(H,10,11)

>  <InChIKey>
XQXPVVBIMDBYFF-UHFFFAOYSA-N

>  <SMILES>
c1cc(ccc1CC(=O)O)O

$$$$
