1MAI_I3P_A_200
  RCSB PDB08012015273D
Coordinates from PDB:1MAI:A:200 Model:1 without hydrogens
 24 24  0  0  0  0            999 V2000
   33.7280   18.0400    3.9670   C 0  0  0  0  0  0  0  0  0  0  0  0
   34.2380   18.5040    5.3380   C 0  0  0  0  0  0  0  0  0  0  0  0
   33.2000   18.2340    6.4080   C 0  0  0  0  0  0  0  0  0  0  0  0
   32.8800   16.7410    6.4420   C 0  0  0  0  0  0  0  0  0  0  0  0
   32.3710   16.2780    5.0670   C 0  0  0  0  0  0  0  0  0  0  0  0
   33.4170   16.5470    3.9940   C 0  0  0  0  0  0  0  0  0  0  0  0
   34.6770   18.2020    2.8400   O 0  0  0  0  0  0  0  0  0  0  0  0
   35.4470   17.8420    5.6740   O 0  0  0  0  0  0  0  0  0  0  0  0
   33.7120   18.6410    7.6590   O 0  0  0  0  0  0  0  0  0  0  0  0
   31.9210   16.4820    7.5520   O 0  0  0  0  0  0  0  0  0  0  0  0
   32.1700   14.8320    5.0980   O 0  0  0  0  0  0  0  0  0  0  0  0
   32.9650   16.1200    2.7150   O 0  0  0  0  0  0  0  0  0  0  0  0
   35.0110   19.6120    2.1900   P 0  0  0  0  0  0  0  0  0  0  0  0
   36.2810   19.4270    1.4430   O 0  0  0  0  0  0  0  0  0  0  0  0
   35.1080   20.5220    3.3630   O 0  0  0  0  0  0  0  0  0  0  0  0
   33.7950   19.8250    1.4150   O 0  0  0  0  0  0  0  0  0  0  0  0
   32.2600   15.7940    8.9670   P 0  0  0  0  0  0  0  0  0  0  0  0
   33.2000   14.7450    8.4870   O 0  0  0  0  0  0  0  0  0  0  0  0
   32.9150   16.8820    9.7050   O 0  0  0  0  0  0  0  0  0  0  0  0
   31.0040   15.3330    9.6140   O 0  0  0  0  0  0  0  0  0  0  0  0
   30.9400   14.0400    4.4450   P 0  0  0  0  0  0  0  0  0  0  0  0
   31.2210   12.6660    4.9280   O 0  0  0  0  0  0  0  0  0  0  0  0
   29.7500   14.7350    5.0200   O 0  0  0  0  0  0  0  0  0  0  0  0
   31.1870   14.2760    3.0180   O 0  0  0  0  0  0  0  0  0  0  0  0
  1  2  1  0  0  0  0
  1  6  1  0  0  0  0
  1  7  1  0  0  0  0
  2  3  1  0  0  0  0
  2  8  1  0  0  0  0
  3  4  1  0  0  0  0
  3  9  1  0  0  0  0
  4  5  1  0  0  0  0
  4 10  1  0  0  0  0
  5  6  1  0  0  0  0
  5 11  1  0  0  0  0
  6 12  1  0  0  0  0
  7 13  1  0  0  0  0
 10 17  1  0  0  0  0
 11 21  1  0  0  0  0
 13 14  2  0  0  0  0
 13 15  1  0  0  0  0
 13 16  1  0  0  0  0
 17 18  2  0  0  0  0
 17 19  1  0  0  0  0
 17 20  1  0  0  0  0
 21 22  2  0  0  0  0
 21 23  1  0  0  0  0
 21 24  1  0  0  0  0
M  END
>  <InstanceId>
1MAI_I3P_A_200

>  <ChemCompId>
I3P

>  <PdbId>
1MAI

>  <ChainId>
A

>  <ResidueNumber>
200

>  <InsertionCode>


>  <Model>
1

>  <AltIds>


>  <MissingHeavyAtoms>
0

>  <ObservedFormula>
C6 O15 P3

>  <Name>
D-MYO-INOSITOL-1,4,5-TRIPHOSPHATE

>  <SystematicName>
[(1R,2R,3S,4R,5R,6S)-2,3,6-trihydroxy-4,5-diphosphonooxy-cyclohexyl] dihydrogen phosphate

>  <Synonyms>


>  <Type>
NON-POLYMER

>  <Formula>
C6 H15 O15 P3

>  <MolecularWeight>
420.096

>  <ModifiedDate>
2011-06-04

>  <Parent>


>  <OneLetterCode>


>  <SubcomponentList>


>  <AmbiguousFlag>
N

>  <InChI>
InChI=1S/C6H15O15P3/c7-1-2(8)5(20-23(13,14)15)6(21-24(16,17)18)3(9)4(1)19-22(10,11)12/h1-9H,(H2,10,11,12)(H2,13,14,15)(H2,16,17,18)/t1-,2+,3+,4-,5-,6-/m1/s1

>  <InChIKey>
MMWCIQZXVOZEGG-XJTPDSDZSA-N

>  <SMILES>
[C@H]1([C@@H]([C@H]([C@@H]([C@H]([C@@H]1OP(=O)(O)O)O)OP(=O)(O)O)OP(=O)(O)O)O)O

$$$$
