5MWH_UWX_A_801
  RCSB PDB08022002263D
Coordinates from PDB:5MWH:A:801 Model:1 without hydrogens
 34 37  0  0  0  0            999 V2000
   24.3730    4.8620   10.8130   C 0  0  0  0  0  0  0  0  0  0  0  0
   25.2240    5.2720   13.1170   C 0  0  0  0  0  0  0  0  0  0  0  0
   20.7740   -2.6410   11.8000   C 0  0  0  0  0  0  0  0  0  0  0  0
   18.2190    0.7490    8.0150   C 0  0  0  0  0  0  0  0  0  0  0  0
   26.1200    2.0440    9.7640   C 0  0  0  0  0  0  0  0  0  0  0  0
   25.5950    1.1160   11.9240   C 0  0  0  0  0  0  0  0  0  0  0  0
   25.8970    0.8100    9.1690   C 0  0  0  0  0  0  0  0  0  0  0  0
   25.3590   -0.1190   11.3250   C 0  0  0  0  0  0  0  0  0  0  0  0
   22.1330   -1.7350    9.4960   C 0  0  0  0  0  0  0  0  0  0  0  0
   20.8610   -0.0800    7.6650   C 0  0  0  0  0  0  0  0  0  0  0  0
   23.2970   -0.0040    3.8850   C 0  0  0  0  0  0  0  0  0  0  0  0
   24.4380    1.4930    5.1860   C 0  0  0  0  0  0  0  0  0  0  0  0
   22.3740   -0.4760    5.0130   C 0  0  0  0  0  0  0  0  0  0  0  0
   23.6080    1.2350    6.4490   C 0  0  0  0  0  0  0  0  0  0  0  0
   26.2220    3.4490   11.7370   C 0  0  0  0  0  0  0  0  0  0  0  0
   25.9720    2.2060   11.1400   C 0  0  0  0  0  0  0  0  0  0  0  0
   22.8160   -1.2810    8.3680   C 0  0  0  0  0  0  0  0  0  0  0  0
   25.5140   -0.2720    9.9550   C 0  0  0  0  0  0  0  0  0  0  0  0
   22.1760   -0.4620    7.4430   C 0  0  0  0  0  0  0  0  0  0  0  0
   18.8390   -1.3750   10.9910   C 0  0  0  0  0  0  0  0  0  0  0  0
   18.2180   -0.5440   10.0650   C 0  0  0  0  0  0  0  0  0  0  0  0
   20.8060   -1.3440    9.7160   C 0  0  0  0  0  0  0  0  0  0  0  0
   20.1740   -0.5160    8.7940   C 0  0  0  0  0  0  0  0  0  0  0  0
   24.9300    4.1940   12.0730   C 0  0  0  0  0  0  0  0  0  0  0  0
   24.0750   -1.6100    8.0560   N 0  0  0  0  0  0  0  0  0  0  0  0
   22.7830    0.0190    6.3360   N 0  0  0  0  0  0  0  0  0  0  0  0
   20.1190   -1.7570   10.8040   N 0  0  0  0  0  0  0  0  0  0  0  0
   18.8960   -0.1300    8.9900   N 0  0  0  0  0  0  0  0  0  0  0  0
   18.2170   -1.7580   11.9850   O 0  0  0  0  0  0  0  0  0  0  0  0
   17.0450   -0.1760   10.2040   O 0  0  0  0  0  0  0  0  0  0  0  0
   26.5210   -2.2560    8.5390   O 0  0  0  0  0  0  0  0  0  0  0  0
   24.8400   -2.8080   10.2960   O 0  0  0  0  0  0  0  0  0  0  0  0
   23.6000    1.3920    4.0420   O 0  0  0  0  0  0  0  0  0  0  0  0
   25.2370   -1.7890    9.2260   S 0  0  0  0  0  0  0  0  0  0  0  0
 11 33  1  0  0  0  0
 11 13  1  0  0  0  0
 33 12  1  0  0  0  0
 13 26  1  0  0  0  0
 12 14  1  0  0  0  0
 26 14  1  0  0  0  0
 26 19  1  0  0  0  0
 19 10  2  0  0  0  0
 19 17  1  0  0  0  0
 10 23  1  0  0  0  0
  4 28  1  0  0  0  0
 25 17  1  0  0  0  0
 25 34  1  0  0  0  0
 17  9  2  0  0  0  0
 31 34  2  0  0  0  0
 23 28  1  0  0  0  0
 23 22  2  0  0  0  0
 28 21  1  0  0  0  0
  7  5  2  0  0  0  0
  7 18  1  0  0  0  0
 34 18  1  0  0  0  0
 34 32  2  0  0  0  0
  9 22  1  0  0  0  0
 22 27  1  0  0  0  0
  5 16  1  0  0  0  0
 18  8  2  0  0  0  0
 21 30  2  0  0  0  0
 21 20  1  0  0  0  0
 27 20  1  0  0  0  0
 27  3  1  0  0  0  0
  1 24  1  0  0  0  0
 20 29  2  0  0  0  0
 16 15  1  0  0  0  0
 16  6  2  0  0  0  0
  8  6  1  0  0  0  0
 15 24  1  0  0  0  0
 24  2  1  0  0  0  0
M  END
>  <InstanceId>
5MWH_UWX_A_801

>  <ChemCompId>
UWX

>  <PdbId>
5MWH

>  <ChainId>
A

>  <ResidueNumber>
801

>  <InsertionCode>


>  <Model>
1

>  <AltIds>


>  <MissingHeavyAtoms>
0

>  <ObservedFormula>
C24 N4 O5 S

>  <Name>
~{N}-[1,4-dimethyl-7-morpholin-4-yl-2,3-bis(oxidanylidene)quinoxalin-6-yl]-4-(2-methylpropyl)benzenesulfonamide

>  <SystematicName>
~{N}-[1,4-dimethyl-7-morpholin-4-yl-2,3-bis(oxidanylidene)quinoxalin-6-yl]-4-(2-methylpropyl)benzenesulfonamide

>  <Synonyms>


>  <Type>
NON-POLYMER

>  <Formula>
C24 H30 N4 O5 S

>  <MolecularWeight>
486.584

>  <ModifiedDate>
2018-02-09

>  <Parent>


>  <OneLetterCode>


>  <SubcomponentList>


>  <AmbiguousFlag>
N

>  <InChI>
InChI=1S/C24H30N4O5S/c1-16(2)13-17-5-7-18(8-6-17)34(31,32)25-19-14-21-22(27(4)24(30)23(29)26(21)3)15-20(19)28-9-11-33-12-10-28/h5-8,14-16,25H,9-13H2,1-4H3

>  <InChIKey>
ITKWKFDZJCBVEW-UHFFFAOYSA-N

>  <SMILES>
CC(C)Cc1ccc(cc1)S(=O)(=O)Nc2cc3c(cc2N4CCOCC4)N(C(=O)C(=O)N3C)C

$$$$
