5F74_AMP_A_301
  RCSB PDB08022001193D
Coordinates from PDB:5F74:A:301 Model:1 without hydrogens
 23 25  0  0  0  0            999 V2000
   13.8360   41.1870   10.4360   P 0  0  0  0  0  0  0  0  0  0  0  0
   12.7350   40.9670    9.4300   O 0  0  0  0  0  0  0  0  0  0  0  0
   15.1460   40.4990   10.1690   O 0  0  0  0  0  0  0  0  0  0  0  0
   13.3540   41.3110   11.8670   O 0  0  0  0  0  0  0  0  0  0  0  0
   14.2410   42.8830   10.1460   O 0  0  0  0  0  0  0  0  0  0  0  0
   15.4810   43.3390   10.4500   C 0  0  0  0  0  0  0  0  0  0  0  0
   16.0310   44.1640    9.1840   C 0  0  0  0  0  0  0  0  0  0  0  0
   16.9710   43.3480    8.5090   O 0  0  0  0  0  0  0  0  0  0  0  0
   14.8970   44.5010    8.1200   C 0  0  0  0  0  0  0  0  0  0  0  0
   14.4870   45.8530    8.1710   O 0  0  0  0  0  0  0  0  0  0  0  0
   15.5860   44.1780    6.7130   C 0  0  0  0  0  0  0  0  0  0  0  0
   15.9270   45.3880    6.0420   O 0  0  0  0  0  0  0  0  0  0  0  0
   17.0060   43.5620    7.1230   C 0  0  0  0  0  0  0  0  0  0  0  0
   17.4130   42.2980    6.3260   N 0  0  0  0  0  0  0  0  0  0  0  0
   17.0910   40.9190    6.6290   C 0  0  0  0  0  0  0  0  0  0  0  0
   17.6070   40.0380    5.7380   N 0  0  0  0  0  0  0  0  0  0  0  0
   18.3100   40.8400    4.7980   C 0  0  0  0  0  0  0  0  0  0  0  0
   19.0710   40.5080    3.6310   C 0  0  0  0  0  0  0  0  0  0  0  0
   19.2440   39.1910    3.2070   N 0  0  0  0  0  0  0  0  0  0  0  0
   19.6630   41.5160    2.8670   N 0  0  0  0  0  0  0  0  0  0  0  0
   19.4710   42.8100    3.3240   C 0  0  0  0  0  0  0  0  0  0  0  0
   18.7880   43.2710    4.3900   N 0  0  0  0  0  0  0  0  0  0  0  0
   18.1970   42.2430    5.1450   C 0  0  0  0  0  0  0  0  0  0  0  0
  1  2  2  0  0  0  0
  1  3  1  0  0  0  0
  1  4  1  0  0  0  0
  1  5  1  0  0  0  0
  5  6  1  0  0  0  0
  6  7  1  0  0  0  0
  7  8  1  0  0  0  0
  7  9  1  0  0  0  0
  8 13  1  0  0  0  0
  9 10  1  0  0  0  0
  9 11  1  0  0  0  0
 11 12  1  0  0  0  0
 11 13  1  0  0  0  0
 13 14  1  0  0  0  0
 14 15  1  0  0  0  0
 14 23  1  0  0  0  0
 15 16  2  0  0  0  0
 16 17  1  0  0  0  0
 17 18  1  0  0  0  0
 17 23  2  0  0  0  0
 18 19  1  0  0  0  0
 18 20  2  0  0  0  0
 20 21  1  0  0  0  0
 21 22  2  0  0  0  0
 22 23  1  0  0  0  0
M  END
>  <InstanceId>
5F74_AMP_A_301

>  <ChemCompId>
AMP

>  <PdbId>
5F74

>  <ChainId>
A

>  <ResidueNumber>
301

>  <InsertionCode>


>  <Model>
1

>  <AltIds>


>  <MissingHeavyAtoms>
0

>  <ObservedFormula>
C10 N5 O7 P

>  <Name>
ADENOSINE MONOPHOSPHATE

>  <SystematicName>
[(2R,3S,4R,5R)-5-(6-aminopurin-9-yl)-3,4-bis(oxidanyl)oxolan-2-yl]methyl dihydrogen phosphate

>  <Synonyms>


>  <Type>
NON-POLYMER

>  <Formula>
C10 H14 N5 O7 P

>  <MolecularWeight>
347.221

>  <ModifiedDate>
2011-12-08

>  <Parent>


>  <OneLetterCode>


>  <SubcomponentList>


>  <AmbiguousFlag>
N

>  <InChI>
InChI=1S/C10H14N5O7P/c11-8-5-9(13-2-12-8)15(3-14-5)10-7(17)6(16)4(22-10)1-21-23(18,19)20/h2-4,6-7,10,16-17H,1H2,(H2,11,12,13)(H2,18,19,20)/t4-,6-,7-,10-/m1/s1

>  <InChIKey>
UDMBCSSLTHHNCD-KQYNXXCUSA-N

>  <SMILES>
c1nc(c2c(n1)n(cn2)[C@H]3[C@@H]([C@@H]([C@H](O3)COP(=O)(O)O)O)O)N

$$$$
