5G57_6M5_A_1931
  RCSB PDB08022001283D
Coordinates from PDB:5G57:A:1931 Model:1 without hydrogens
 43 48  0  0  0  0            999 V2000
   28.6120   12.6970   -0.6610   C 0  0  0  0  0  0  0  0  0  0  0  0
   28.2610   13.2860   -1.8940   C 0  0  0  0  0  0  0  0  0  0  0  0
   28.1510   15.2740   -3.2870   C 0  0  0  0  0  0  0  0  0  0  0  0
   28.2950   16.7740   -3.1560   C 0  0  0  0  0  0  0  0  0  0  0  0
   28.0660   17.5190   -4.4570   C 0  0  0  0  0  0  0  0  0  0  0  0
   26.6950   18.1200   -4.6140   C 0  0  0  0  0  0  0  0  0  0  0  0
   24.4440   17.3840   -5.0660   C 0  0  0  0  0  0  0  0  0  0  0  0
   18.5590   17.7770   -7.3940   N 0  0  0  0  0  0  0  0  0  0  0  0
   18.8270   19.0420   -7.4370   N 0  0  0  0  0  0  0  0  0  0  0  0
   20.0860   19.2670   -6.9800   N 0  0  0  0  0  0  0  0  0  0  0  0
   26.5930   10.9020   -4.8620   N 0  0  0  0  0  0  0  0  0  0  0  0
   23.9900   18.6860   -5.2460   C 0  0  0  0  0  0  0  0  0  0  0  0
   21.8980   17.8450   -6.0740   C 0  0  0  0  0  0  0  0  0  0  0  0
   23.8850   11.4660   -5.9050   C 0  0  0  0  0  0  0  0  0  0  0  0
   25.3070    6.9020   -3.4070   C 0  0  0  0  0  0  0  0  0  0  0  0
   25.5950    8.2010   -6.9530   O 0  0  0  0  0  0  0  0  0  0  0  0
   26.2020    8.8180   -6.0760   C 0  0  0  0  0  0  0  0  0  0  0  0
   25.9760   10.1700   -5.8520   N 0  0  0  0  0  0  0  0  0  0  0  0
   25.0660   10.9520   -6.7150   C 0  0  0  0  0  0  0  0  0  0  0  0
   25.8730   12.0170   -7.4540   C 0  0  0  0  0  0  0  0  0  0  0  0
   25.3180   12.4600   -8.8070   C 0  0  0  0  0  0  0  0  0  0  0  0
   23.8530   12.9000   -8.8770   C 0  0  0  0  0  0  0  0  0  0  0  0
   23.2010   13.2700   -7.5460   C 0  0  0  0  0  0  0  0  0  0  0  0
   22.7550   12.0780   -6.7270   C 0  0  0  0  0  0  0  0  0  0  0  0
   27.1760    8.1550   -5.1420   C 0  0  0  0  0  0  0  0  0  0  0  0
   27.0090    8.7650   -3.7330   C 0  0  0  0  0  0  0  0  0  0  0  0
   25.6510    8.3310   -3.1600   C 0  0  0  0  0  0  0  0  0  0  0  0
   25.8930    6.1680   -4.3350   C 0  0  0  0  0  0  0  0  0  0  0  0
   27.0900    6.6250   -5.1040   C 0  0  0  0  0  0  0  0  0  0  0  0
   27.0740   10.2830   -3.8430   C 0  0  0  0  0  0  0  0  0  0  0  0
   27.6250   11.0990   -2.7270   C 0  0  0  0  0  0  0  0  0  0  0  0
   27.9540   10.5340   -1.5020   C 0  0  0  0  0  0  0  0  0  0  0  0
   28.4600   11.3270   -0.4840   C 0  0  0  0  0  0  0  0  0  0  0  0
   29.0810   13.5570    0.2950   O 0  0  0  0  0  0  0  0  0  0  0  0
   29.8970   13.0000    1.3380   C 0  0  0  0  0  0  0  0  0  0  0  0
   27.7490   12.4810   -2.9010   C 0  0  0  0  0  0  0  0  0  0  0  0
   28.4320   14.6500   -2.0170   O 0  0  0  0  0  0  0  0  0  0  0  0
   25.6970   17.0810   -4.5960   O 0  0  0  0  0  0  0  0  0  0  0  0
   23.6320   16.3140   -5.4090   C 0  0  0  0  0  0  0  0  0  0  0  0
   22.3690   16.5460   -5.9150   C 0  0  0  0  0  0  0  0  0  0  0  0
   22.7170   18.9110   -5.7280   C 0  0  0  0  0  0  0  0  0  0  0  0
   20.5720   18.0870   -6.6290   C 0  0  0  0  0  0  0  0  0  0  0  0
   19.6460   17.1620   -6.8990   N 0  0  0  0  0  0  0  0  0  0  0  0
 23 24  1  0  0  0  0
 23 22  1  0  0  0  0
 24 14  1  0  0  0  0
 22 21  1  0  0  0  0
 14 19  1  0  0  0  0
  8  9  2  0  0  0  0
  8 43  1  0  0  0  0
  9 10  1  0  0  0  0
 10 42  1  0  0  0  0
 43 42  2  0  0  0  0
 16 17  2  0  0  0  0
 19 20  1  0  0  0  0
 19 18  1  0  0  0  0
 21 20  1  0  0  0  0
 42 13  1  0  0  0  0
 17 18  1  0  0  0  0
 17 25  1  0  0  0  0
 13 41  2  0  0  0  0
 13 40  1  0  0  0  0
 41 12  1  0  0  0  0
 18 11  1  0  0  0  0
 40 39  2  0  0  0  0
 12  7  2  0  0  0  0
 39  7  1  0  0  0  0
 25 29  1  0  0  0  0
 25 26  1  0  0  0  0
 29 28  1  0  0  0  0
  7 38  1  0  0  0  0
 11 30  2  0  0  0  0
 38  6  1  0  0  0  0
  6  5  1  0  0  0  0
  5  4  1  0  0  0  0
 28 15  2  0  0  0  0
 30 26  1  0  0  0  0
 30 31  1  0  0  0  0
 26 27  1  0  0  0  0
 15 27  1  0  0  0  0
  3  4  1  0  0  0  0
  3 37  1  0  0  0  0
 36 31  2  0  0  0  0
 36  2  1  0  0  0  0
 31 32  1  0  0  0  0
 37  2  1  0  0  0  0
  2  1  2  0  0  0  0
 32 33  2  0  0  0  0
  1 33  1  0  0  0  0
  1 34  1  0  0  0  0
 34 35  1  0  0  0  0
M  END
>  <InstanceId>
5G57_6M5_A_1931

>  <ChemCompId>
6M5

>  <PdbId>
5G57

>  <ChainId>
A

>  <ResidueNumber>
1931

>  <InsertionCode>


>  <Model>
1

>  <AltIds>


>  <MissingHeavyAtoms>
0

>  <ObservedFormula>
C33 N6 O4

>  <Name>
(4~{a}~{S},8~{a}~{R})-2-cycloheptyl-4-[4-methoxy-3-[4-[4-(1~{H}-1,2,3,4-tetrazol-5-yl)phenoxy]butoxy]phenyl]-4~{a},5,8,8~{a}-tetrahydrophthalazin-1-one

>  <SystematicName>
(4~{a}~{S},8~{a}~{R})-2-cycloheptyl-4-[4-methoxy-3-[4-[4-(1~{H}-1,2,3,4-tetrazol-5-yl)phenoxy]butoxy]phenyl]-4~{a},5,8,8~{a}-tetrahydrophthalazin-1-one

>  <Synonyms>


>  <Type>
NON-POLYMER

>  <Formula>
C33 H40 N6 O4

>  <MolecularWeight>
584.708

>  <ModifiedDate>
2017-11-24

>  <Parent>


>  <OneLetterCode>


>  <SubcomponentList>


>  <AmbiguousFlag>
N

>  <InChI>
InChI=1S/C33H40N6O4/c1-41-29-19-16-24(31-27-12-6-7-13-28(27)33(40)39(36-31)25-10-4-2-3-5-11-25)22-30(29)43-21-9-8-20-42-26-17-14-23(15-18-26)32-34-37-38-35-32/h6-7,14-19,22,25,27-28H,2-5,8-13,20-21H2,1H3,(H,34,35,37,38)/t27-,28+/m0/s1

>  <InChIKey>
DNDNLFXKQSTINI-WUFINQPMSA-N

>  <SMILES>
COc1ccc(cc1OCCCCOc2ccc(cc2)c3[nH]nnn3)C4=NN(C(=O)[C@H]5[C@@H]4CC=CC5)C6CCCCCC6

$$$$
