5AA9_5P8_A_2402
  RCSB PDB08022000443D
Coordinates from PDB:5AA9:A:2402 Model:1 without hydrogens
 30 33  0  0  0  0            999 V2000
   26.6460   48.8240    7.2500   C 0  0  0  0  0  0  0  0  0  0  0  0
   34.5640   47.0100    8.9140   C 0  0  0  0  0  0  0  0  0  0  0  0
   34.9850   46.8080   10.2490   C 0  0  0  0  0  0  0  0  0  0  0  0
   29.9700   45.8860    8.4950   C 0  0  0  0  0  0  0  0  0  0  0  0
   33.6300   44.7540   10.3780   C 0  0  0  0  0  0  0  0  0  0  0  0
   27.8550   46.5220    9.3600   C 0  0  0  0  0  0  0  0  0  0  0  0
   28.0750   48.9430    7.1840   C 0  0  0  0  0  0  0  0  0  0  0  0
   28.9460   46.8560    8.5220   C 0  0  0  0  0  0  0  0  0  0  0  0
   29.0940   48.1180    7.7150   C 0  0  0  0  0  0  0  0  0  0  0  0
   33.6640   46.0840    8.2910   C 0  0  0  0  0  0  0  0  0  0  0  0
   33.1720   44.9180    9.0200   C 0  0  0  0  0  0  0  0  0  0  0  0
   29.9550   44.6760    9.2290   C 0  0  0  0  0  0  0  0  0  0  0  0
   34.5200   45.6910   10.9650   C 0  0  0  0  0  0  0  0  0  0  0  0
   30.3190   48.8030    7.2920   C 0  0  0  0  0  0  0  0  0  0  0  0
   28.8150   44.4420   10.0380   C 0  0  0  0  0  0  0  0  0  0  0  0
   33.2810   46.3910    6.8730   C 0  0  0  0  0  0  0  0  0  0  0  0
   31.7860   48.4670    7.5230   C 0  0  0  0  0  0  0  0  0  0  0  0
   32.1900   43.8690    8.4200   C 0  0  0  0  0  0  0  0  0  0  0  0
   32.8270   42.4690    8.3440   C 0  0  0  0  0  0  0  0  0  0  0  0
   28.1290   51.0970    5.8250   C 0  0  0  0  0  0  0  0  0  0  0  0
   32.1150   47.6960    5.1190   C 0  0  0  0  0  0  0  0  0  0  0  0
   25.4970   48.7130    7.3280   N 0  0  0  0  0  0  0  0  0  0  0  0
   27.7780   45.3530   10.1000   N 0  0  0  0  0  0  0  0  0  0  0  0
   30.0570   49.9100    6.5870   N 0  0  0  0  0  0  0  0  0  0  0  0
   28.7270   49.9770    6.5340   N 0  0  0  0  0  0  0  0  0  0  0  0
   32.4110   47.4960    6.5480   N 0  0  0  0  0  0  0  0  0  0  0  0
   28.7250   43.2630   10.8060   N 0  0  0  0  0  0  0  0  0  0  0  0
   33.7740   45.6200    6.0370   O 0  0  0  0  0  0  0  0  0  0  0  0
   30.9660   43.7090    9.2230   O 0  0  0  0  0  0  0  0  0  0  0  0
   34.9250   45.5120   12.2250   F 0  0  0  0  0  0  0  0  0  0  0  0
 21 26  1  0  0  0  0
 28 16  2  0  0  0  0
 20 25  1  0  0  0  0
 26 16  1  0  0  0  0
 26 17  1  0  0  0  0
 24 25  1  0  0  0  0
 24 14  2  0  0  0  0
 25  7  1  0  0  0  0
 16 10  1  0  0  0  0
  7  1  1  0  0  0  0
  7  9  2  0  0  0  0
 14 17  1  0  0  0  0
 14  9  1  0  0  0  0
  1 22  3  0  0  0  0
  9  8  1  0  0  0  0
 10  2  2  0  0  0  0
 10 11  1  0  0  0  0
 19 18  1  0  0  0  0
 18 11  1  0  0  0  0
 18 29  1  0  0  0  0
  4  8  2  0  0  0  0
  4 12  1  0  0  0  0
  8  6  1  0  0  0  0
  2  3  1  0  0  0  0
 11  5  2  0  0  0  0
 29 12  1  0  0  0  0
 12 15  2  0  0  0  0
  6 23  2  0  0  0  0
 15 23  1  0  0  0  0
 15 27  1  0  0  0  0
  3 13  2  0  0  0  0
  5 13  1  0  0  0  0
 13 30  1  0  0  0  0
M  END
>  <InstanceId>
5AA9_5P8_A_2402

>  <ChemCompId>
5P8

>  <PdbId>
5AA9

>  <ChainId>
A

>  <ResidueNumber>
2402

>  <InsertionCode>


>  <Model>
1

>  <AltIds>


>  <MissingHeavyAtoms>
0

>  <ObservedFormula>
C21 N6 O2 F

>  <Name>
(10R)-7-amino-12-fluoro-2,10,16-trimethyl-15-oxo-10,15,16,17-tetrahydro-2H-8,4-(metheno)pyrazolo[4,3-h][2,5,11]benzoxadiazacyclotetradecine-3-carbonitrile

>  <SystematicName>


>  <Synonyms>


>  <Type>
NON-POLYMER

>  <Formula>
C21 H19 F N6 O2

>  <MolecularWeight>
406.413

>  <ModifiedDate>
2016-10-04

>  <Parent>


>  <OneLetterCode>


>  <SubcomponentList>


>  <AmbiguousFlag>
N

>  <InChI>
InChI=1S/C21H19FN6O2/c1-11-15-7-13(22)4-5-14(15)21(29)27(2)10-16-19(17(8-23)28(3)26-16)12-6-18(30-11)20(24)25-9-12/h4-7,9,11H,10H2,1-3H3,(H2,24,25)/t11-/m1/s1

>  <InChIKey>
IIXWYSCJSQVBQM-LLVKDONJSA-N

>  <SMILES>
C[C@@H]1c2cc(ccc2C(=O)N(Cc3c(c(n(n3)C)C#N)-c4cc(c(nc4)N)O1)C)F

$$$$
