6DQ4_K0I_A_601
  RCSB PDB08022004243D
Coordinates from PDB:6DQ4:A:601 Model:1 without hydrogens
 29 32  0  0  0  0            999 V2000
  -21.3240   18.5740    8.1470   O 0  0  0  0  0  0  0  0  0  0  0  0
  -22.2720   19.2050    7.6100   C 0  0  0  0  0  0  0  0  0  0  0  0
  -23.1130   19.8040    8.3280   O 0  0  0  0  0  0  0  0  0  0  0  0
  -22.4040   19.2450    6.0890   C 0  0  0  0  0  0  0  0  0  0  0  0
  -23.8700   19.0260    5.7150   C 0  0  0  0  0  0  0  0  0  0  0  0
  -24.0600   19.1920    4.2810   N 0  0  0  0  0  0  0  0  0  0  0  0
  -24.3460   20.4150    3.7580   C 0  0  0  0  0  0  0  0  0  0  0  0
  -24.2350   20.6080    2.4570   N 0  0  0  0  0  0  0  0  0  0  0  0
  -24.5320   21.8400    1.9770   C 0  0  0  0  0  0  0  0  0  0  0  0
  -24.4090   22.0600    0.5070   C 0  0  0  0  0  0  0  0  0  0  0  0
  -24.2150   20.9630   -0.2630   N 0  0  0  0  0  0  0  0  0  0  0  0
  -24.1030   21.1490   -1.5970   C 0  0  0  0  0  0  0  0  0  0  0  0
  -24.1840   22.4020   -2.1790   C 0  0  0  0  0  0  0  0  0  0  0  0
  -24.3810   23.4870   -1.3900   C 0  0  0  0  0  0  0  0  0  0  0  0
  -24.4950   23.3280   -0.0480   C 0  0  0  0  0  0  0  0  0  0  0  0
  -24.9300   22.8990    2.7280   N 0  0  0  0  0  0  0  0  0  0  0  0
  -25.0350   22.6730    4.0280   C 0  0  0  0  0  0  0  0  0  0  0  0
  -24.7420   21.4270    4.5640   C 0  0  0  0  0  0  0  0  0  0  0  0
  -25.4350   23.7220    4.8200   N 0  0  0  0  0  0  0  0  0  0  0  0
  -25.6390   25.0490    4.2600   C 0  0  0  0  0  0  0  0  0  0  0  0
  -26.9250   25.1560    3.4330   C 0  0  0  0  0  0  0  0  0  0  0  0
  -28.2450   25.0720    4.2080   C 0  0  0  0  0  0  0  0  0  0  0  0
  -28.3200   24.8620    5.6000   C 0  0  0  0  0  0  0  0  0  0  0  0
  -27.0170   24.7090    6.4070   C 0  0  0  0  0  0  0  0  0  0  0  0
  -26.2220   23.4820    6.0070   C 0  0  0  0  0  0  0  0  0  0  0  0
  -29.4440   25.2070    3.4970   C 0  0  0  0  0  0  0  0  0  0  0  0
  -30.6820   25.1390    4.1180   C 0  0  0  0  0  0  0  0  0  0  0  0
  -30.7510   24.9320    5.4860   C 0  0  0  0  0  0  0  0  0  0  0  0
  -29.5770   24.7940    6.2100   C 0  0  0  0  0  0  0  0  0  0  0  0
  1  2  2  0  0  0  0
  2  3  1  0  0  0  0
  2  4  1  0  0  0  0
  4  5  1  0  0  0  0
  5  6  1  0  0  0  0
  6  7  1  0  0  0  0
  7  8  2  0  0  0  0
  7 18  1  0  0  0  0
  8  9  1  0  0  0  0
  9 10  1  0  0  0  0
  9 16  2  0  0  0  0
 10 11  2  0  0  0  0
 10 15  1  0  0  0  0
 11 12  1  0  0  0  0
 12 13  2  0  0  0  0
 13 14  1  0  0  0  0
 14 15  2  0  0  0  0
 16 17  1  0  0  0  0
 17 18  2  0  0  0  0
 17 19  1  0  0  0  0
 19 20  1  0  0  0  0
 19 25  1  0  0  0  0
 20 21  1  0  0  0  0
 21 22  1  0  0  0  0
 22 23  1  0  0  0  0
 22 26  2  0  0  0  0
 23 24  1  0  0  0  0
 23 29  2  0  0  0  0
 24 25  1  0  0  0  0
 26 27  1  0  0  0  0
 27 28  2  0  0  0  0
 28 29  1  0  0  0  0
M  END
>  <InstanceId>
6DQ4_K0I_A_601

>  <ChemCompId>
K0I

>  <PdbId>
6DQ4

>  <ChainId>
A

>  <ResidueNumber>
601

>  <InsertionCode>


>  <Model>
1

>  <AltIds>


>  <MissingHeavyAtoms>
0

>  <ObservedFormula>
C22 N5 O2

>  <Name>
3-[[2-pyridin-2-yl-6-(1,2,4,5-tetrahydro-3-benzazepin-3-yl)pyrimidin-4-yl]amino]propanoic acid

>  <SystematicName>
3-[[2-pyridin-2-yl-6-(1,2,4,5-tetrahydro-3-benzazepin-3-yl)pyrimidin-4-yl]amino]propanoic acid

>  <Synonyms>
3-((6-(4,5-dihydro-1H-benzo[d]azepin-3(2H)-yl)-2-(pyridin-2-yl)pyrimidin-4-yl)amino)propanoic acid

>  <Type>
non-polymer

>  <Formula>
C22 H23 N5 O2

>  <MolecularWeight>
389.45

>  <ModifiedDate>
2016-01-12

>  <Parent>


>  <OneLetterCode>


>  <SubcomponentList>


>  <AmbiguousFlag>
N

>  <InChI>
InChI=1S/C22H23N5O2/c28-21(29)8-12-24-19-15-20(26-22(25-19)18-7-3-4-11-23-18)27-13-9-16-5-1-2-6-17(16)10-14-27/h1-7,11,15H,8-10,12-14H2,(H,28,29)(H,24,25,26)

>  <InChIKey>
AVZCPICCWKMZDT-UHFFFAOYSA-N

>  <SMILES>
c1ccc2c(c1)CCN(CC2)c3cc(nc(n3)c4ccccn4)NCCC(=O)O

$$$$
