6EBE_J3V_A_302
  RCSB PDB08022004303D
Coordinates from PDB:6EBE:A:302 Model:1 without hydrogens
 28 29  0  0  0  0            999 V2000
   -2.2860    8.9400   12.4050   C 0  0  0  0  0  0  0  0  0  0  0  0
   -1.0410   10.0230   14.1410   C 0  0  0  0  0  0  0  0  0  0  0  0
   -2.2500    7.9970   14.6260   C 0  0  0  0  0  0  0  0  0  0  0  0
   -4.9870    0.6770   13.6690   C 0  0  0  0  0  0  0  0  0  0  0  0
   -4.7330    1.0710   12.3700   C 0  0  0  0  0  0  0  0  0  0  0  0
   -4.6180    2.4160   12.0810   C 0  0  0  0  0  0  0  0  0  0  0  0
   -4.7670    3.3420   13.1000   C 0  0  0  0  0  0  0  0  0  0  0  0
   -5.0290    2.9640   14.4130   C 0  0  0  0  0  0  0  0  0  0  0  0
   -5.1430    1.6090   14.6820   C 0  0  0  0  0  0  0  0  0  0  0  0
   -4.3540    2.8580   10.7740   O 0  0  0  0  0  0  0  0  0  0  0  0
   -4.6130    4.7180   12.6980   N 0  0  0  0  0  0  0  0  0  0  0  0
   -3.6340    5.5590   13.3400   C 0  0  0  0  0  0  0  0  0  0  0  0
   -3.5470    6.9060   12.8190   N 0  0  0  0  0  0  0  0  0  0  0  0
   -2.9660    5.1490   14.2320   O 0  0  0  0  0  0  0  0  0  0  0  0
   -2.6690    7.9520   13.3030   C 0  0  0  0  0  0  0  0  0  0  0  0
   -1.4680    9.9720   12.8220   C 0  0  0  0  0  0  0  0  0  0  0  0
   -1.4270    9.0360   15.0430   C 0  0  0  0  0  0  0  0  0  0  0  0
   -5.4940    0.9490   16.3370   S 0  0  0  0  0  0  0  0  0  0  0  0
   -6.8800    1.1850   16.7390   O 0  0  0  0  0  0  0  0  0  0  0  0
   -4.6760    1.5540   17.3870   O 0  0  0  0  0  0  0  0  0  0  0  0
   -5.2400   -0.7270   16.2590   N 0  0  0  0  0  0  0  0  0  0  0  0
   -4.5930    0.0720   11.3360   N 0  0  0  0  0  0  0  0  0  0  0  0
   -4.2150   -1.0110   11.6160   O 0  0  0  0  0  0  0  0  0  0  0  0
   -4.9300    0.4010   10.0170   O 0  0  0  0  0  0  0  0  0  0  0  0
   -0.1250   11.1700   14.5660   C 0  0  0  0  0  0  0  0  0  0  0  0
    1.1480   10.6970   14.7200   F 0  0  0  0  0  0  0  0  0  0  0  0
   -0.1450   12.1180   13.5830   F 0  0  0  0  0  0  0  0  0  0  0  0
   -0.5550   11.7310   15.7310   F 0  0  0  0  0  0  0  0  0  0  0  0
 24 22  2  0  0  0  0
 10  6  1  0  0  0  0
 22 23  2  0  0  0  0
 22  5  1  0  0  0  0
  6  5  2  0  0  0  0
  6  7  1  0  0  0  0
  5  4  1  0  0  0  0
  1 16  2  0  0  0  0
  1 15  1  0  0  0  0
 11  7  1  0  0  0  0
 11 12  1  0  0  0  0
 13 15  1  0  0  0  0
 13 12  1  0  0  0  0
 16  2  1  0  0  0  0
  7  8  2  0  0  0  0
 15  3  2  0  0  0  0
 12 14  2  0  0  0  0
 27 25  1  0  0  0  0
  4  9  2  0  0  0  0
  2 25  1  0  0  0  0
  2 17  2  0  0  0  0
  8  9  1  0  0  0  0
 25 26  1  0  0  0  0
 25 28  1  0  0  0  0
  3 17  1  0  0  0  0
  9 18  1  0  0  0  0
 21 18  1  0  0  0  0
 18 19  2  0  0  0  0
 18 20  2  0  0  0  0
M  END
>  <InstanceId>
6EBE_J3V_A_302

>  <ChemCompId>
J3V

>  <PdbId>
6EBE

>  <ChainId>
A

>  <ResidueNumber>
302

>  <InsertionCode>


>  <Model>
1

>  <AltIds>


>  <MissingHeavyAtoms>
0

>  <ObservedFormula>
C14 N4 O6 S F3

>  <Name>
4-hydroxy-3-nitro-5-({[4-(trifluoromethyl)phenyl]carbamoyl}amino)benzene-1-sulfonamide

>  <SystematicName>
1-(3-nitro-2-oxidanyl-5-sulfamoyl-phenyl)-3-[4-(trifluoromethyl)phenyl]urea

>  <Synonyms>


>  <Type>
NON-POLYMER

>  <Formula>
C14 H11 F3 N4 O6 S

>  <MolecularWeight>
420.321

>  <ModifiedDate>
2018-11-23

>  <Parent>


>  <OneLetterCode>


>  <SubcomponentList>


>  <AmbiguousFlag>
N

>  <InChI>
InChI=1S/C14H11F3N4O6S/c15-14(16,17)7-1-3-8(4-2-7)19-13(23)20-10-5-9(28(18,26)27)6-11(12(10)22)21(24)25/h1-6,22H,(H2,18,26,27)(H2,19,20,23)

>  <InChIKey>
QAQNAMKVJZAGRL-UHFFFAOYSA-N

>  <SMILES>
c1cc(ccc1C(F)(F)F)NC(=O)Nc2cc(cc(c2O)N(=O)=O)S(=O)(=O)N

$$$$
