5D3X_4IP_A_501
  RCSB PDB08022001023D
Coordinates from PDB:5D3X:A:501 Model:1 without hydrogens
 28 28  0  0  0  0            999 V2000
    4.5500    8.7320    4.8970   C 0  0  0  0  0  0  0  0  0  0  0  0
    3.3010    9.1490    5.4170   O 0  0  0  0  0  0  0  0  0  0  0  0
    4.4160    7.4330    4.1210   C 0  0  0  0  0  0  0  0  0  0  0  0
    4.0880    6.3630    4.9840   O 0  0  0  0  0  0  0  0  0  0  0  0
    5.7100    7.1440    3.3590   C 0  0  0  0  0  0  0  0  0  0  0  0
    5.6870    5.8300    2.8080   O 0  0  0  0  0  0  0  0  0  0  0  0
    7.0240    7.6750    4.0030   C 0  0  0  0  0  0  0  0  0  0  0  0
    8.3080    7.0360    3.8920   O 0  0  0  0  0  0  0  0  0  0  0  0
    6.9410    8.3920    5.3820   C 0  0  0  0  0  0  0  0  0  0  0  0
    7.8590    7.8850    6.3420   O 0  0  0  0  0  0  0  0  0  0  0  0
    5.5650    8.5370    6.0010   C 0  0  0  0  0  0  0  0  0  0  0  0
    5.6040    9.7030    6.8040   O 0  0  0  0  0  0  0  0  0  0  0  0
    2.4210   10.1740    4.5840   P 0  0  0  0  0  0  0  0  0  0  0  0
    1.6850    9.4490    3.4750   O 0  0  0  0  0  0  0  0  0  0  0  0
    3.3030   11.2480    3.9860   O 0  0  0  0  0  0  0  0  0  0  0  0
    1.4150   10.8100    5.5180   O 0  0  0  0  0  0  0  0  0  0  0  0
    5.6690    5.8100    1.2000   P 0  0  0  0  0  0  0  0  0  0  0  0
    4.5440    6.6400    0.6250   O 0  0  0  0  0  0  0  0  0  0  0  0
    5.5430    4.3640    0.8100   O 0  0  0  0  0  0  0  0  0  0  0  0
    7.0020    6.3600    0.7350   O 0  0  0  0  0  0  0  0  0  0  0  0
    8.9680    5.6350    3.5090   P 0  0  0  0  0  0  0  0  0  0  0  0
    8.3080    4.4890    4.2590   O 0  0  0  0  0  0  0  0  0  0  0  0
   10.3850    5.8310    4.0240   O 0  0  0  0  0  0  0  0  0  0  0  0
    9.0130    5.4570    2.0020   O 0  0  0  0  0  0  0  0  0  0  0  0
    9.2520    8.6310    6.4980   P 0  0  0  0  0  0  0  0  0  0  0  0
   10.3720    7.6540    6.2420   O 0  0  0  0  0  0  0  0  0  0  0  0
    9.3280    9.7600    5.4970   O 0  0  0  0  0  0  0  0  0  0  0  0
    9.3950    9.1390    7.9100   O 0  0  0  0  0  0  0  0  0  0  0  0
  1  2  1  0  0  0  0
  1  3  1  0  0  0  0
  1 11  1  0  0  0  0
  2 13  1  0  0  0  0
  3  4  1  0  0  0  0
  3  5  1  0  0  0  0
  5  6  1  0  0  0  0
  5  7  1  0  0  0  0
  6 17  1  0  0  0  0
  7  8  1  0  0  0  0
  7  9  1  0  0  0  0
  8 21  1  0  0  0  0
  9 10  1  0  0  0  0
  9 11  1  0  0  0  0
 10 25  1  0  0  0  0
 11 12  1  0  0  0  0
 13 14  2  0  0  0  0
 13 15  1  0  0  0  0
 13 16  1  0  0  0  0
 17 18  2  0  0  0  0
 17 19  1  0  0  0  0
 17 20  1  0  0  0  0
 21 22  1  0  0  0  0
 21 23  1  0  0  0  0
 21 24  2  0  0  0  0
 25 26  1  0  0  0  0
 25 27  2  0  0  0  0
 25 28  1  0  0  0  0
M  END
>  <InstanceId>
5D3X_4IP_A_501

>  <ChemCompId>
4IP

>  <PdbId>
5D3X

>  <ChainId>
A

>  <ResidueNumber>
501

>  <InsertionCode>


>  <Model>
1

>  <AltIds>


>  <MissingHeavyAtoms>
0

>  <ObservedFormula>
C6 O18 P4

>  <Name>
INOSITOL-(1,3,4,5)-TETRAKISPHOSPHATE

>  <SystematicName>
[(1S,2S,4S,5R)-2,4-bis(oxidanyl)-3,5,6-triphosphonooxy-cyclohexyl] dihydrogen phosphate

>  <Synonyms>


>  <Type>
NON-POLYMER

>  <Formula>
C6 H16 O18 P4

>  <MolecularWeight>
500.075

>  <ModifiedDate>
2014-10-08

>  <Parent>


>  <OneLetterCode>


>  <SubcomponentList>


>  <AmbiguousFlag>
N

>  <InChI>
InChI=1S/C6H16O18P4/c7-1-3(21-25(9,10)11)2(8)5(23-27(15,16)17)6(24-28(18,19)20)4(1)22-26(12,13)14/h1-8H,(H2,9,10,11)(H2,12,13,14)(H2,15,16,17)(H2,18,19,20)/t1-,2-,3-,4+,5-,6-/m0/s1

>  <InChIKey>
CIPFCGZLFXVXBG-CNWJWELYSA-N

>  <SMILES>
[C@H]1([C@H](C([C@H]([C@H](C1OP(=O)(O)O)O)OP(=O)(O)O)OP(=O)(O)O)OP(=O)(O)O)O

$$$$
