3ARX_POY_A_606
  RCSB PDB08012018343D
Coordinates from PDB:3ARX:A:606 Model:1 without hydrogens
 22 23  0  0  0  0            999 V2000
   18.6050  -11.0460   19.5070   N 0  0  0  0  0  0  0  0  0  0  0  0
   17.7710  -10.1930   20.1530   C 0  0  0  0  0  0  0  0  0  0  0  0
   18.2430   -9.6350   21.3400   C 0  0  0  0  0  0  0  0  0  0  0  0
   19.4970   -9.8800   21.8250   C 0  0  0  0  0  0  0  0  0  0  0  0
   20.3340  -10.7510   21.2020   N 0  0  0  0  0  0  0  0  0  0  0  0
   19.9000  -11.3380   20.0300   C 0  0  0  0  0  0  0  0  0  0  0  0
   17.7600   -8.7540   22.2020   N 0  0  0  0  0  0  0  0  0  0  0  0
   18.7130   -8.5680   23.2450   C 0  0  0  0  0  0  0  0  0  0  0  0
   19.7830   -9.2180   23.0080   N 0  0  0  0  0  0  0  0  0  0  0  0
   18.1300  -11.7040   18.2110   C 0  0  0  0  0  0  0  0  0  0  0  0
   17.3990  -13.0380   18.5360   C 0  0  0  0  0  0  0  0  0  0  0  0
   17.4380  -14.1100   17.3390   C 0  0  0  0  0  0  0  0  0  0  0  0
   16.8140  -13.2980   16.1610   C 0  0  0  0  0  0  0  0  0  0  0  0
   16.6410  -14.1580   14.9440   C 0  0  0  0  0  0  0  0  0  0  0  0
   16.8370  -15.5300   15.0160   C 0  0  0  0  0  0  0  0  0  0  0  0
   16.1210  -13.6430   13.8760   O 0  0  0  0  0  0  0  0  0  0  0  0
   16.6050  -10.0590   19.7440   O 0  0  0  0  0  0  0  0  0  0  0  0
   20.6550  -12.1120   19.4180   O 0  0  0  0  0  0  0  0  0  0  0  0
   21.6680  -10.9920   21.8710   C 0  0  0  0  0  0  0  0  0  0  0  0
   16.4580   -8.1840   22.0690   C 0  0  0  0  0  0  0  0  0  0  0  0
   15.3960   -8.9200   22.8640   C 0  0  0  0  0  0  0  0  0  0  0  0
   13.9460   -8.3970   22.8470   C 0  0  0  0  0  0  0  0  0  0  0  0
  1  2  1  0  0  0  0
  1  6  1  0  0  0  0
  1 10  1  0  0  0  0
  2  3  1  0  0  0  0
  2 17  2  0  0  0  0
  3  4  2  0  0  0  0
  3  7  1  0  0  0  0
  4  5  1  0  0  0  0
  4  9  1  0  0  0  0
  5  6  1  0  0  0  0
  5 19  1  0  0  0  0
  6 18  2  0  0  0  0
  7  8  1  0  0  0  0
  7 20  1  0  0  0  0
  8  9  2  0  0  0  0
 10 11  1  0  0  0  0
 11 12  1  0  0  0  0
 12 13  1  0  0  0  0
 13 14  1  0  0  0  0
 14 15  1  0  0  0  0
 14 16  2  0  0  0  0
 20 21  1  0  0  0  0
 21 22  1  0  0  0  0
M  END
>  <InstanceId>
3ARX_POY_A_606

>  <ChemCompId>
POY

>  <PdbId>
3ARX

>  <ChainId>
A

>  <ResidueNumber>
606

>  <InsertionCode>


>  <Model>
1

>  <AltIds>


>  <MissingHeavyAtoms>
0

>  <ObservedFormula>
C15 N4 O3

>  <Name>
3-methyl-1-(5-oxohexyl)-7-propyl-3,7-dihydro-1H-purine-2,6-dione

>  <SystematicName>
3-methyl-1-(5-oxohexyl)-7-propyl-purine-2,6-dione

>  <Synonyms>
Propentofylline

>  <Type>
NON-POLYMER

>  <Formula>
C15 H22 N4 O3

>  <MolecularWeight>
306.36

>  <ModifiedDate>
2020-06-17

>  <Parent>


>  <OneLetterCode>


>  <SubcomponentList>


>  <AmbiguousFlag>
N

>  <InChI>
InChI=1S/C15H22N4O3/c1-4-8-18-10-16-13-12(18)14(21)19(15(22)17(13)3)9-6-5-7-11(2)20/h10H,4-9H2,1-3H3

>  <InChIKey>
RBQOQRRFDPXAGN-UHFFFAOYSA-N

>  <SMILES>
CCCn1cnc2c1C(=O)N(C(=O)N2C)CCCCC(=O)C

$$$$
