4RD6_GDP_A_501
  RCSB PDB08012023093D
Coordinates from PDB:4RD6:A:501 Model:1 without hydrogens
 28 30  0  0  0  0            999 V2000
   -6.9140   30.1520   -4.8180   P 0  0  0  0  0  0  0  0  0  0  0  0
   -5.5830   29.6520   -5.2790   O 0  0  0  0  0  0  0  0  0  0  0  0
   -7.6330   30.8910   -5.9170   O 0  0  0  0  0  0  0  0  0  0  0  0
   -7.7180   28.9810   -4.2950   O 0  0  0  0  0  0  0  0  0  0  0  0
   -6.7080   31.2250   -3.6260   O 0  0  0  0  0  0  0  0  0  0  0  0
   -6.8090   30.9900   -2.0410   P 0  0  0  0  0  0  0  0  0  0  0  0
   -8.2510   30.8930   -1.5870   O 0  0  0  0  0  0  0  0  0  0  0  0
   -5.9370   29.8380   -1.6190   O 0  0  0  0  0  0  0  0  0  0  0  0
   -6.2100   32.3930   -1.5360   O 0  0  0  0  0  0  0  0  0  0  0  0
   -4.8360   32.7200   -1.7930   C 0  0  0  0  0  0  0  0  0  0  0  0
   -4.3580   33.7570   -0.7850   C 0  0  0  0  0  0  0  0  0  0  0  0
   -5.1440   34.9510   -0.9170   O 0  0  0  0  0  0  0  0  0  0  0  0
   -4.5420   33.2540    0.6420   C 0  0  0  0  0  0  0  0  0  0  0  0
   -3.4130   33.6550    1.4320   O 0  0  0  0  0  0  0  0  0  0  0  0
   -5.8000   33.9810    1.0990   C 0  0  0  0  0  0  0  0  0  0  0  0
   -5.8820   34.1960    2.5120   O 0  0  0  0  0  0  0  0  0  0  0  0
   -5.7070   35.2900    0.3360   C 0  0  0  0  0  0  0  0  0  0  0  0
   -7.0490   35.8760    0.1680   N 0  0  0  0  0  0  0  0  0  0  0  0
   -8.1500   35.2590   -0.2980   C 0  0  0  0  0  0  0  0  0  0  0  0
   -9.2050   36.1030   -0.3230   N 0  0  0  0  0  0  0  0  0  0  0  0
   -8.7750   37.2930    0.1250   C 0  0  0  0  0  0  0  0  0  0  0  0
   -9.3660   38.6210    0.3700   C 0  0  0  0  0  0  0  0  0  0  0  0
  -10.5760   38.8420    0.1310   O 0  0  0  0  0  0  0  0  0  0  0  0
   -8.5560   39.5780    0.8580   N 0  0  0  0  0  0  0  0  0  0  0  0
   -7.2520   39.3640    1.1210   C 0  0  0  0  0  0  0  0  0  0  0  0
   -6.5020   40.3750    1.6070   N 0  0  0  0  0  0  0  0  0  0  0  0
   -6.6490   38.1740    0.9240   N 0  0  0  0  0  0  0  0  0  0  0  0
   -7.3480   37.1310    0.4480   C 0  0  0  0  0  0  0  0  0  0  0  0
  1  2  2  0  0  0  0
  1  3  1  0  0  0  0
  1  4  1  0  0  0  0
  1  5  1  0  0  0  0
  5  6  1  0  0  0  0
  6  7  2  0  0  0  0
  6  8  1  0  0  0  0
  6  9  1  0  0  0  0
  9 10  1  0  0  0  0
 10 11  1  0  0  0  0
 11 12  1  0  0  0  0
 11 13  1  0  0  0  0
 12 17  1  0  0  0  0
 13 14  1  0  0  0  0
 13 15  1  0  0  0  0
 15 16  1  0  0  0  0
 15 17  1  0  0  0  0
 17 18  1  0  0  0  0
 18 19  1  0  0  0  0
 18 28  1  0  0  0  0
 19 20  2  0  0  0  0
 20 21  1  0  0  0  0
 21 22  1  0  0  0  0
 21 28  2  0  0  0  0
 22 23  2  0  0  0  0
 22 24  1  0  0  0  0
 24 25  1  0  0  0  0
 25 26  1  0  0  0  0
 25 27  2  0  0  0  0
 27 28  1  0  0  0  0
M  END
>  <InstanceId>
4RD6_GDP_A_501

>  <ChemCompId>
GDP

>  <PdbId>
4RD6

>  <ChainId>
A

>  <ResidueNumber>
501

>  <InsertionCode>


>  <Model>
1

>  <AltIds>


>  <MissingHeavyAtoms>
0

>  <ObservedFormula>
C10 N5 O11 P2

>  <Name>
GUANOSINE-5'-DIPHOSPHATE

>  <SystematicName>
[(2R,3S,4R,5R)-5-(2-azanyl-6-oxidanylidene-1H-purin-9-yl)-3,4-bis(oxidanyl)oxolan-2-yl]methyl phosphono hydrogen phosphate

>  <Synonyms>


>  <Type>
RNA LINKING

>  <Formula>
C10 H15 N5 O11 P2

>  <MolecularWeight>
443.201

>  <ModifiedDate>
2014-05-12

>  <Parent>
G

>  <OneLetterCode>
G

>  <SubcomponentList>


>  <AmbiguousFlag>
N

>  <InChI>
InChI=1S/C10H15N5O11P2/c11-10-13-7-4(8(18)14-10)12-2-15(7)9-6(17)5(16)3(25-9)1-24-28(22,23)26-27(19,20)21/h2-3,5-6,9,16-17H,1H2,(H,22,23)(H2,19,20,21)(H3,11,13,14,18)/t3-,5-,6-,9-/m1/s1

>  <InChIKey>
QGWNDRXFNXRZMB-UUOKFMHZSA-N

>  <SMILES>
c1nc2c(n1[C@H]3[C@@H]([C@@H]([C@H](O3)CO[P@](=O)(O)OP(=O)(O)O)O)O)N=C(NC2=O)N

$$$$
