4RD0_GDP_A_501
  RCSB PDB08012023093D
Coordinates from PDB:4RD0:A:501 Model:1 without hydrogens
 28 30  0  0  0  0            999 V2000
  -29.7330  -17.6060   18.7270   P 0  0  0  0  0  0  0  0  0  0  0  0
  -30.8720  -16.7030   19.1660   O 0  0  0  0  0  0  0  0  0  0  0  0
  -29.3720  -17.3490   17.3060   O 0  0  0  0  0  0  0  0  0  0  0  0
  -28.5610  -17.4090   19.6610   O 0  0  0  0  0  0  0  0  0  0  0  0
  -30.2450  -19.1290   18.8020   O 0  0  0  0  0  0  0  0  0  0  0  0
  -30.1220  -20.0740   20.0900   P 0  0  0  0  0  0  0  0  0  0  0  0
  -28.7710  -20.7320   20.1480   O 0  0  0  0  0  0  0  0  0  0  0  0
  -30.5330  -19.4060   21.3950   O 0  0  0  0  0  0  0  0  0  0  0  0
  -31.2250  -21.1830   19.6960   O 0  0  0  0  0  0  0  0  0  0  0  0
  -32.5970  -20.8330   19.4960   C 0  0  0  0  0  0  0  0  0  0  0  0
  -33.4000  -22.1260   19.5200   C 0  0  0  0  0  0  0  0  0  0  0  0
  -32.9820  -22.9380   18.4190   O 0  0  0  0  0  0  0  0  0  0  0  0
  -33.1260  -22.9380   20.7750   C 0  0  0  0  0  0  0  0  0  0  0  0
  -34.3450  -23.5870   21.1360   O 0  0  0  0  0  0  0  0  0  0  0  0
  -32.1280  -23.9870   20.3270   C 0  0  0  0  0  0  0  0  0  0  0  0
  -32.1850  -25.1780   21.1080   O 0  0  0  0  0  0  0  0  0  0  0  0
  -32.5500  -24.2110   18.8830   C 0  0  0  0  0  0  0  0  0  0  0  0
  -31.4140  -24.7270   18.0930   N 0  0  0  0  0  0  0  0  0  0  0  0
  -30.1710  -24.2100   18.0190   C 0  0  0  0  0  0  0  0  0  0  0  0
  -29.3920  -24.9600   17.1930   N 0  0  0  0  0  0  0  0  0  0  0  0
  -30.1560  -25.9680   16.7230   C 0  0  0  0  0  0  0  0  0  0  0  0
  -29.9660  -27.1170   15.8180   C 0  0  0  0  0  0  0  0  0  0  0  0
  -28.8560  -27.3050   15.2910   O 0  0  0  0  0  0  0  0  0  0  0  0
  -31.0080  -27.9330   15.5810   N 0  0  0  0  0  0  0  0  0  0  0  0
  -32.2130  -27.7330   16.1580   C 0  0  0  0  0  0  0  0  0  0  0  0
  -33.2310  -28.5890   15.8770   N 0  0  0  0  0  0  0  0  0  0  0  0
  -32.4580  -26.6970   17.0060   N 0  0  0  0  0  0  0  0  0  0  0  0
  -31.4840  -25.8050   17.3170   C 0  0  0  0  0  0  0  0  0  0  0  0
  1  2  2  0  0  0  0
  1  3  1  0  0  0  0
  1  4  1  0  0  0  0
  1  5  1  0  0  0  0
  5  6  1  0  0  0  0
  6  7  2  0  0  0  0
  6  8  1  0  0  0  0
  6  9  1  0  0  0  0
  9 10  1  0  0  0  0
 10 11  1  0  0  0  0
 11 12  1  0  0  0  0
 11 13  1  0  0  0  0
 12 17  1  0  0  0  0
 13 14  1  0  0  0  0
 13 15  1  0  0  0  0
 15 16  1  0  0  0  0
 15 17  1  0  0  0  0
 17 18  1  0  0  0  0
 18 19  1  0  0  0  0
 18 28  1  0  0  0  0
 19 20  2  0  0  0  0
 20 21  1  0  0  0  0
 21 22  1  0  0  0  0
 21 28  2  0  0  0  0
 22 23  2  0  0  0  0
 22 24  1  0  0  0  0
 24 25  1  0  0  0  0
 25 26  1  0  0  0  0
 25 27  2  0  0  0  0
 27 28  1  0  0  0  0
M  END
>  <InstanceId>
4RD0_GDP_A_501

>  <ChemCompId>
GDP

>  <PdbId>
4RD0

>  <ChainId>
A

>  <ResidueNumber>
501

>  <InsertionCode>


>  <Model>
1

>  <AltIds>


>  <MissingHeavyAtoms>
0

>  <ObservedFormula>
C10 N5 O11 P2

>  <Name>
GUANOSINE-5'-DIPHOSPHATE

>  <SystematicName>
[(2R,3S,4R,5R)-5-(2-azanyl-6-oxidanylidene-1H-purin-9-yl)-3,4-bis(oxidanyl)oxolan-2-yl]methyl phosphono hydrogen phosphate

>  <Synonyms>


>  <Type>
RNA LINKING

>  <Formula>
C10 H15 N5 O11 P2

>  <MolecularWeight>
443.201

>  <ModifiedDate>
2014-05-12

>  <Parent>
G

>  <OneLetterCode>
G

>  <SubcomponentList>


>  <AmbiguousFlag>
N

>  <InChI>
InChI=1S/C10H15N5O11P2/c11-10-13-7-4(8(18)14-10)12-2-15(7)9-6(17)5(16)3(25-9)1-24-28(22,23)26-27(19,20)21/h2-3,5-6,9,16-17H,1H2,(H,22,23)(H2,19,20,21)(H3,11,13,14,18)/t3-,5-,6-,9-/m1/s1

>  <InChIKey>
QGWNDRXFNXRZMB-UUOKFMHZSA-N

>  <SMILES>
c1nc2c(n1[C@H]3[C@@H]([C@@H]([C@H](O3)CO[P@](=O)(O)OP(=O)(O)O)O)O)N=C(NC2=O)N

$$$$
