4FXP_ADX_A_301
  RCSB PDB08012021453D
Coordinates from PDB:4FXP:A:301 Model:1 without hydrogens
 27 29  0  0  0  0            999 V2000
   -8.3400   -9.6180   11.6200   S 0  0  0  0  0  0  0  0  0  0  0  0
   -7.7700  -10.4300   10.5780   O 0  0  0  0  0  0  0  0  0  0  0  0
   -8.4700  -10.4280   12.8540   O 0  0  0  0  0  0  0  0  0  0  0  0
   -7.4620   -8.4570   11.8720   O 0  0  0  0  0  0  0  0  0  0  0  0
  -10.1260   -8.0300   10.2190   P 0  0  0  0  0  0  0  0  0  0  0  0
   -9.1420   -8.0340    9.0940   O 0  0  0  0  0  0  0  0  0  0  0  0
  -10.2000   -6.6890   10.9270   O 0  0  0  0  0  0  0  0  0  0  0  0
   -9.7290   -9.1870   11.2330   O 0  0  0  0  0  0  0  0  0  0  0  0
  -11.5610   -8.4180    9.6880   O 0  0  0  0  0  0  0  0  0  0  0  0
  -12.7040   -8.3530   10.5080   C 0  0  0  0  0  0  0  0  0  0  0  0
  -13.9820   -8.3720    9.8260   C 0  0  0  0  0  0  0  0  0  0  0  0
  -14.1220   -9.6250    9.1610   O 0  0  0  0  0  0  0  0  0  0  0  0
  -15.1360   -8.2820   10.7720   C 0  0  0  0  0  0  0  0  0  0  0  0
  -15.6480   -6.9810   10.8070   O 0  0  0  0  0  0  0  0  0  0  0  0
  -16.1220   -9.1140   10.1880   C 0  0  0  0  0  0  0  0  0  0  0  0
  -16.8610   -8.3470    9.2830   O 0  0  0  0  0  0  0  0  0  0  0  0
  -15.4110  -10.1190    9.3720   C 0  0  0  0  0  0  0  0  0  0  0  0
  -15.3840  -11.4400    9.9320   N 0  0  0  0  0  0  0  0  0  0  0  0
  -15.7470  -12.5710    9.2860   C 0  0  0  0  0  0  0  0  0  0  0  0
  -15.4500  -13.6220   10.0680   N 0  0  0  0  0  0  0  0  0  0  0  0
  -14.8840  -13.1600   11.2070   C 0  0  0  0  0  0  0  0  0  0  0  0
  -14.3800  -13.7740   12.3680   C 0  0  0  0  0  0  0  0  0  0  0  0
  -14.3900  -15.1970   12.4680   N 0  0  0  0  0  0  0  0  0  0  0  0
  -13.8650  -13.0130   13.3680   N 0  0  0  0  0  0  0  0  0  0  0  0
  -13.8360  -11.6720   13.2570   C 0  0  0  0  0  0  0  0  0  0  0  0
  -14.3040  -11.0530   12.1460   N 0  0  0  0  0  0  0  0  0  0  0  0
  -14.8340  -11.7640   11.1230   C 0  0  0  0  0  0  0  0  0  0  0  0
  1  2  2  0  0  0  0
  1  3  2  0  0  0  0
  1  4  1  0  0  0  0
  1  8  1  0  0  0  0
  5  6  2  0  0  0  0
  5  7  1  0  0  0  0
  5  8  1  0  0  0  0
  5  9  1  0  0  0  0
  9 10  1  0  0  0  0
 10 11  1  0  0  0  0
 11 12  1  0  0  0  0
 11 13  1  0  0  0  0
 12 17  1  0  0  0  0
 13 14  1  0  0  0  0
 13 15  1  0  0  0  0
 15 16  1  0  0  0  0
 15 17  1  0  0  0  0
 17 18  1  0  0  0  0
 18 19  1  0  0  0  0
 18 27  1  0  0  0  0
 19 20  2  0  0  0  0
 20 21  1  0  0  0  0
 21 22  1  0  0  0  0
 21 27  2  0  0  0  0
 22 23  1  0  0  0  0
 22 24  2  0  0  0  0
 24 25  1  0  0  0  0
 25 26  2  0  0  0  0
 26 27  1  0  0  0  0
M  END
>  <InstanceId>
4FXP_ADX_A_301

>  <ChemCompId>
ADX

>  <PdbId>
4FXP

>  <ChainId>
A

>  <ResidueNumber>
301

>  <InsertionCode>


>  <Model>
1

>  <AltIds>


>  <MissingHeavyAtoms>
0

>  <ObservedFormula>
C10 N5 O10 P S

>  <Name>
ADENOSINE-5'-PHOSPHOSULFATE

>  <SystematicName>
[(2R,3S,4R,5R)-5-(6-aminopurin-9-yl)-3,4-dihydroxy-oxolan-2-yl]methyl sulfo hydrogen phosphate

>  <Synonyms>


>  <Type>
RNA LINKING

>  <Formula>
C10 H14 N5 O10 P S

>  <MolecularWeight>
427.284

>  <ModifiedDate>
2011-06-04

>  <Parent>


>  <OneLetterCode>
N

>  <SubcomponentList>


>  <AmbiguousFlag>
N

>  <InChI>
InChI=1S/C10H14N5O10PS/c11-8-5-9(13-2-12-8)15(3-14-5)10-7(17)6(16)4(24-10)1-23-26(18,19)25-27(20,21)22/h2-4,6-7,10,16-17H,1H2,(H,18,19)(H2,11,12,13)(H,20,21,22)/t4-,6-,7-,10-/m1/s1

>  <InChIKey>
IRLPACMLTUPBCL-KQYNXXCUSA-N

>  <SMILES>
c1nc(c2c(n1)n(cn2)[C@H]3[C@@H]([C@@H]([C@H](O3)CO[P@](=O)(O)OS(=O)(=O)O)O)O)N

$$$$
