3AXZ_ADN_A_401
  RCSB PDB08012018353D
Coordinates from PDB:3AXZ:A:401 Model:1 without hydrogens
 19 21  0  0  0  0            999 V2000
   44.3170    6.4750   11.1420   O 0  0  0  0  0  0  0  0  0  0  0  0
   43.0150    6.0440   11.5470   C 0  0  0  0  0  0  0  0  0  0  0  0
   42.9610    4.5150   11.5440   C 0  0  0  0  0  0  0  0  0  0  0  0
   43.3390    4.0240   10.2440   O 0  0  0  0  0  0  0  0  0  0  0  0
   43.9540    3.9250   12.5490   C 0  0  0  0  0  0  0  0  0  0  0  0
   43.5070    2.6620   13.0490   O 0  0  0  0  0  0  0  0  0  0  0  0
   45.1890    3.7470   11.6700   C 0  0  0  0  0  0  0  0  0  0  0  0
   46.1090    2.7990   12.2170   O 0  0  0  0  0  0  0  0  0  0  0  0
   44.5480    3.2550   10.3730   C 0  0  0  0  0  0  0  0  0  0  0  0
   45.4730    3.4530    9.2340   N 0  0  0  0  0  0  0  0  0  0  0  0
   45.8520    4.6280    8.7350   C 0  0  0  0  0  0  0  0  0  0  0  0
   46.7220    4.4330    7.7450   N 0  0  0  0  0  0  0  0  0  0  0  0
   46.8990    3.1220    7.6100   C 0  0  0  0  0  0  0  0  0  0  0  0
   47.6720    2.3300    6.7700   C 0  0  0  0  0  0  0  0  0  0  0  0
   48.4640    2.8800    5.8540   N 0  0  0  0  0  0  0  0  0  0  0  0
   47.6140    0.9980    6.9010   N 0  0  0  0  0  0  0  0  0  0  0  0
   46.8360    0.4360    7.8110   C 0  0  0  0  0  0  0  0  0  0  0  0
   46.0900    1.1580    8.6270   N 0  0  0  0  0  0  0  0  0  0  0  0
   46.0980    2.4960    8.5550   C 0  0  0  0  0  0  0  0  0  0  0  0
  1  2  1  0  0  0  0
  2  3  1  0  0  0  0
  3  4  1  0  0  0  0
  3  5  1  0  0  0  0
  4  9  1  0  0  0  0
  5  6  1  0  0  0  0
  5  7  1  0  0  0  0
  7  8  1  0  0  0  0
  7  9  1  0  0  0  0
  9 10  1  0  0  0  0
 10 11  1  0  0  0  0
 10 19  1  0  0  0  0
 11 12  2  0  0  0  0
 12 13  1  0  0  0  0
 13 14  1  0  0  0  0
 13 19  2  0  0  0  0
 14 15  1  0  0  0  0
 14 16  2  0  0  0  0
 16 17  1  0  0  0  0
 17 18  2  0  0  0  0
 18 19  1  0  0  0  0
M  END
>  <InstanceId>
3AXZ_ADN_A_401

>  <ChemCompId>
ADN

>  <PdbId>
3AXZ

>  <ChainId>
A

>  <ResidueNumber>
401

>  <InsertionCode>


>  <Model>
1

>  <AltIds>


>  <MissingHeavyAtoms>
0

>  <ObservedFormula>
C10 N5 O4

>  <Name>
ADENOSINE

>  <SystematicName>
(2R,3R,4S,5R)-2-(6-aminopurin-9-yl)-5-(hydroxymethyl)oxolane-3,4-diol

>  <Synonyms>


>  <Type>
NON-POLYMER

>  <Formula>
C10 H13 N5 O4

>  <MolecularWeight>
267.241

>  <ModifiedDate>
2011-06-04

>  <Parent>


>  <OneLetterCode>


>  <SubcomponentList>


>  <AmbiguousFlag>
N

>  <InChI>
InChI=1S/C10H13N5O4/c11-8-5-9(13-2-12-8)15(3-14-5)10-7(18)6(17)4(1-16)19-10/h2-4,6-7,10,16-18H,1H2,(H2,11,12,13)/t4-,6-,7-,10-/m1/s1

>  <InChIKey>
OIRDTQYFTABQOQ-KQYNXXCUSA-N

>  <SMILES>
c1nc(c2c(n1)n(cn2)[C@H]3[C@@H]([C@@H]([C@H](O3)CO)O)O)N

$$$$
