3HV8_C2E_A_900
  RCSB PDB08012019153D
Coordinates from PDB:3HV8:A:900 Model:1 without hydrogens
 46 52  0  0  0  0            999 V2000
  -27.6550   -1.4580  -15.2170   P 0  0  0  0  0  0  0  0  0  0  0  0
  -28.5730   -0.3880  -14.4650   O 0  0  0  0  0  0  0  0  0  0  0  0
  -27.9830   -1.3500  -16.6530   O 0  0  0  0  0  0  0  0  0  0  0  0
  -26.0930   -1.1470  -15.1600   O 0  0  0  0  0  0  0  0  0  0  0  0
  -25.5750   -0.1740  -16.0880   C 0  0  0  0  0  0  0  0  0  0  0  0
  -24.9600   -0.7960  -17.3600   C 0  0  0  0  0  0  0  0  0  0  0  0
  -24.4100    0.2680  -18.1740   O 0  0  0  0  0  0  0  0  0  0  0  0
  -23.7610   -1.6060  -16.8840   C 0  0  0  0  0  0  0  0  0  0  0  0
  -23.6360   -2.7860  -17.6920   O 0  0  0  0  0  0  0  0  0  0  0  0
  -22.5620   -0.6400  -17.0340   C 0  0  0  0  0  0  0  0  0  0  0  0
  -21.3320   -1.2950  -17.2810   O 0  0  0  0  0  0  0  0  0  0  0  0
  -22.9960    0.1650  -18.2590   C 0  0  0  0  0  0  0  0  0  0  0  0
  -22.4350    1.5050  -18.3410   N 0  0  0  0  0  0  0  0  0  0  0  0
  -21.8560    2.2310  -17.3270   C 0  0  0  0  0  0  0  0  0  0  0  0
  -21.6340    3.4590  -17.7370   N 0  0  0  0  0  0  0  0  0  0  0  0
  -22.0410    3.5650  -19.0360   C 0  0  0  0  0  0  0  0  0  0  0  0
  -22.0380    4.6210  -19.9750   C 0  0  0  0  0  0  0  0  0  0  0  0
  -21.6550    5.7600  -19.7010   O 0  0  0  0  0  0  0  0  0  0  0  0
  -22.5100    4.3400  -21.1980   N 0  0  0  0  0  0  0  0  0  0  0  0
  -22.9690    3.1030  -21.5290   C 0  0  0  0  0  0  0  0  0  0  0  0
  -23.4410    2.8950  -22.7990   N 0  0  0  0  0  0  0  0  0  0  0  0
  -22.9780    2.1130  -20.6670   N 0  0  0  0  0  0  0  0  0  0  0  0
  -22.5320    2.3200  -19.4270   C 0  0  0  0  0  0  0  0  0  0  0  0
  -23.3530   -4.1700  -16.9210   P 0  0  0  0  0  0  0  0  0  0  0  0
  -23.1800   -5.2930  -18.0100   O 0  0  0  0  0  0  0  0  0  0  0  0
  -22.2310   -4.0300  -15.9710   O 0  0  0  0  0  0  0  0  0  0  0  0
  -24.6600   -4.4130  -16.0560   O 0  0  0  0  0  0  0  0  0  0  0  0
  -25.9140   -4.5930  -16.7280   C 0  0  0  0  0  0  0  0  0  0  0  0
  -27.0060   -4.9780  -15.7330   C 0  0  0  0  0  0  0  0  0  0  0  0
  -26.6530   -6.2170  -15.1000   O 0  0  0  0  0  0  0  0  0  0  0  0
  -27.1990   -3.9900  -14.5810   C 0  0  0  0  0  0  0  0  0  0  0  0
  -28.1030   -2.9400  -14.9020   O 0  0  0  0  0  0  0  0  0  0  0  0
  -27.8830   -4.8890  -13.5490   C 0  0  0  0  0  0  0  0  0  0  0  0
  -29.2610   -5.0980  -13.9040   O 0  0  0  0  0  0  0  0  0  0  0  0
  -27.1730   -6.2270  -13.7860   C 0  0  0  0  0  0  0  0  0  0  0  0
  -26.0670   -6.3450  -12.8440   N 0  0  0  0  0  0  0  0  0  0  0  0
  -24.7720   -5.9360  -12.9910   C 0  0  0  0  0  0  0  0  0  0  0  0
  -24.1150   -6.2410  -11.9060   N 0  0  0  0  0  0  0  0  0  0  0  0
  -24.9320   -6.9190  -11.0450   C 0  0  0  0  0  0  0  0  0  0  0  0
  -24.7910   -7.5190   -9.7770   C 0  0  0  0  0  0  0  0  0  0  0  0
  -23.7610   -7.4320   -9.0970   O 0  0  0  0  0  0  0  0  0  0  0  0
  -25.9020   -8.1230   -9.2800   N 0  0  0  0  0  0  0  0  0  0  0  0
  -27.0940   -8.1670   -9.9510   C 0  0  0  0  0  0  0  0  0  0  0  0
  -28.1740   -8.7580   -9.3590   N 0  0  0  0  0  0  0  0  0  0  0  0
  -27.2490   -7.5930  -11.1150   N 0  0  0  0  0  0  0  0  0  0  0  0
  -26.1870   -6.9940  -11.6660   C 0  0  0  0  0  0  0  0  0  0  0  0
  1  2  1  0  0  0  0
  3  1  2  0  0  0  0
  4  1  1  0  0  0  0
  5  4  1  0  0  0  0
  6  7  1  0  0  0  0
  6  5  1  0  0  0  0
  8  6  1  0  0  0  0
  9 24  1  0  0  0  0
  9  8  1  0  0  0  0
 10  8  1  0  0  0  0
 10 12  1  0  0  0  0
 11 10  1  0  0  0  0
 12  7  1  0  0  0  0
 12 13  1  0  0  0  0
 13 23  1  0  0  0  0
 13 14  1  0  0  0  0
 14 15  2  0  0  0  0
 16 15  1  0  0  0  0
 16 17  1  0  0  0  0
 17 18  2  0  0  0  0
 19 17  1  0  0  0  0
 20 19  1  0  0  0  0
 21 20  1  0  0  0  0
 22 20  2  0  0  0  0
 22 23  1  0  0  0  0
 23 16  2  0  0  0  0
 24 25  1  0  0  0  0
 24 27  1  0  0  0  0
 26 24  2  0  0  0  0
 28 27  1  0  0  0  0
 28 29  1  0  0  0  0
 29 30  1  0  0  0  0
 29 31  1  0  0  0  0
 30 35  1  0  0  0  0
 31 33  1  0  0  0  0
 32 31  1  0  0  0  0
 32  1  1  0  0  0  0
 33 34  1  0  0  0  0
 35 33  1  0  0  0  0
 35 36  1  0  0  0  0
 36 46  1  0  0  0  0
 37 38  2  0  0  0  0
 37 36  1  0  0  0  0
 38 39  1  0  0  0  0
 39 46  2  0  0  0  0
 39 40  1  0  0  0  0
 40 41  2  0  0  0  0
 40 42  1  0  0  0  0
 43 42  1  0  0  0  0
 43 44  1  0  0  0  0
 45 43  2  0  0  0  0
 46 45  1  0  0  0  0
M  END
>  <InstanceId>
3HV8_C2E_A_900

>  <ChemCompId>
C2E

>  <PdbId>
3HV8

>  <ChainId>
A

>  <ResidueNumber>
900

>  <InsertionCode>


>  <Model>
1

>  <AltIds>


>  <MissingHeavyAtoms>
0

>  <ObservedFormula>
C20 N10 O14 P2

>  <Name>
9,9'-[(2R,3R,3aS,5S,7aR,9R,10R,10aS,12S,14aR)-3,5,10,12-tetrahydroxy-5,12-dioxidooctahydro-2H,7H-difuro[3,2-d:3',2'-j][1,3,7,9,2,8]tetraoxadiphosphacyclododecine-2,9-diyl]bis(2-amino-1,9-dihydro-6H-purin-6-one)

>  <SystematicName>


>  <Synonyms>
c-di-GMP; Cyclic diguanosine monophosphate

>  <Type>
NON-POLYMER

>  <Formula>
C20 H24 N10 O14 P2

>  <MolecularWeight>
690.411

>  <ModifiedDate>
2020-01-26

>  <Parent>


>  <OneLetterCode>


>  <SubcomponentList>


>  <AmbiguousFlag>
N

>  <InChI>
InChI=1S/C20H24N10O14P2/c21-19-25-13-7(15(33)27-19)23-3-29(13)17-9(31)11-5(41-17)1-39-45(35,36)44-12-6(2-40-46(37,38)43-11)42-18(10(12)32)30-4-24-8-14(30)26-20(22)28-16(8)34/h3-6,9-12,17-18,31-32H,1-2H2,(H,35,36)(H,37,38)(H3,21,25,27,33)(H3,22,26,28,34)/t5-,6-,9-,10-,11-,12-,17-,18-/m1/s1

>  <InChIKey>
PKFDLKSEZWEFGL-MHARETSRSA-N

>  <SMILES>
c1nc2c(n1[C@H]3[C@@H]([C@H]4[C@H](O3)CO[P@@](=O)(O[C@@H]5[C@@H](CO[P@@](=O)(O4)O)O[C@H]([C@@H]5O)n6cnc7c6N=C(NC7=O)N)O)O)N=C(NC2=O)N

$$$$
