2FU8_MCO_A_1410
  RCSB PDB08012017003D
Coordinates from PDB:2FU8:A:1410 Model:1 without hydrogens
 14 14  0  0  0  0            999 V2000
   12.4610   27.8840   36.7350   O 0  0  0  0  0  0  0  0  0  0  0  0
   12.2550   28.3950   35.5990   C 0  0  0  0  0  0  0  0  0  0  0  0
   12.4650   29.6100   35.3680   O 0  0  0  0  0  0  0  0  0  0  0  0
   11.5800   27.5560   34.5390   C 0  0  0  0  0  0  0  0  0  0  0  0
   10.1170   27.4990   34.9540   C 0  0  0  0  0  0  0  0  0  0  0  0
    9.2650   28.2030   33.9290   C 0  0  0  0  0  0  0  0  0  0  0  0
   10.2110   28.5780   32.8020   C 0  0  0  0  0  0  0  0  0  0  0  0
   11.5460   28.1730   33.1870   N 0  0  0  0  0  0  0  0  0  0  0  0
   12.6470   28.3380   32.4130   C 0  0  0  0  0  0  0  0  0  0  0  0
   13.7630   27.9650   32.7670   O 0  0  0  0  0  0  0  0  0  0  0  0
   12.5530   28.9890   31.0430   C 0  0  0  0  0  0  0  0  0  0  0  0
   13.1740   28.0450   29.9990   C 0  0  0  0  0  0  0  0  0  0  0  0
   13.2790   30.3310   31.0050   C 0  0  0  0  0  0  0  0  0  0  0  0
   12.5730   31.5720   32.1160   S 0  0  0  0  0  0  0  0  0  0  0  0
  1  2  2  0  0  0  0
  2  3  1  0  0  0  0
  2  4  1  0  0  0  0
  4  5  1  0  0  0  0
  4  8  1  0  0  0  0
  5  6  1  0  0  0  0
  6  7  1  0  0  0  0
  7  8  1  0  0  0  0
  8  9  1  0  0  0  0
  9 10  2  0  0  0  0
  9 11  1  0  0  0  0
 11 12  1  0  0  0  0
 11 13  1  0  0  0  0
 13 14  1  0  0  0  0
M  END
>  <InstanceId>
2FU8_MCO_A_1410

>  <ChemCompId>
MCO

>  <PdbId>
2FU8

>  <ChainId>
A

>  <ResidueNumber>
1410

>  <InsertionCode>


>  <Model>
1

>  <AltIds>


>  <MissingHeavyAtoms>
0

>  <ObservedFormula>
C9 N O3 S

>  <Name>
1-(3-MERCAPTO-2-METHYL-PROPIONYL)-PYRROLIDINE-2-CARBOXYLIC ACID

>  <SystematicName>
(2R)-1-[(2S)-2-methyl-3-sulfanyl-propanoyl]pyrrolidine-2-carboxylic acid

>  <Synonyms>


>  <Type>
NON-POLYMER

>  <Formula>
C9 H15 N O3 S

>  <MolecularWeight>
217.285

>  <ModifiedDate>
2012-01-05

>  <Parent>


>  <OneLetterCode>


>  <SubcomponentList>


>  <AmbiguousFlag>
N

>  <InChI>
InChI=1S/C9H15NO3S/c1-6(5-14)8(11)10-4-2-3-7(10)9(12)13/h6-7,14H,2-5H2,1H3,(H,12,13)/t6-,7-/m1/s1

>  <InChIKey>
FAKRSMQSSFJEIM-RNFRBKRXSA-N

>  <SMILES>
C[C@H](CS)C(=O)N1CCC[C@@H]1C(=O)O

$$$$
