3SU0_TSV_A_100
  RCSB PDB08012020303D
Coordinates from PDB:3SU0:A:100 Model:1 without hydrogens
 51 56  0  0  0  0            999 V2000
  -12.5030   -6.3010   17.1930   C 0  0  0  0  0  0  0  0  0  0  0  0
  -15.4590  -15.0730   18.3660   F 0  0  0  0  0  0  0  0  0  0  0  0
  -18.1840   -9.4280   14.7240   N 0  0  0  0  0  0  0  0  0  0  0  0
  -19.2500  -10.8890   16.1840   O 0  0  0  0  0  0  0  0  0  0  0  0
   -8.8460   -6.3000   13.8030   S 0  0  0  0  0  0  0  0  0  0  0  0
  -12.1450   -6.7890   15.7940   C 0  0  0  0  0  0  0  0  0  0  0  0
  -12.4210   -8.1780   15.5140   N 0  0  0  0  0  0  0  0  0  0  0  0
  -17.9170  -11.6560   14.4490   O 0  0  0  0  0  0  0  0  0  0  0  0
  -13.4200   -5.9580   16.0210   C 0  0  0  0  0  0  0  0  0  0  0  0
  -10.1410   -6.9470   14.4670   N 0  0  0  0  0  0  0  0  0  0  0  0
  -15.5670   -8.4720   15.3330   O 0  0  0  0  0  0  0  0  0  0  0  0
  -10.9280   -6.1470   15.1940   C 0  0  0  0  0  0  0  0  0  0  0  0
  -13.2500  -14.5970   14.7470   N 0  0  0  0  0  0  0  0  0  0  0  0
   -7.9070   -5.7900   14.8000   O 0  0  0  0  0  0  0  0  0  0  0  0
  -13.4810   -4.4990   15.6360   C 0  0  0  0  0  0  0  0  0  0  0  0
  -14.9210   -9.9330   13.7790   N 0  0  0  0  0  0  0  0  0  0  0  0
  -12.3420  -13.9500   12.8390   O 0  0  0  0  0  0  0  0  0  0  0  0
  -18.4980  -13.0390   16.9990   C 0  0  0  0  0  0  0  0  0  0  0  0
   -9.2460   -5.2800   12.8230   O 0  0  0  0  0  0  0  0  0  0  0  0
  -20.5850  -11.9420   17.8370   C 0  0  0  0  0  0  0  0  0  0  0  0
  -13.1360   -7.7580   13.4200   O 0  0  0  0  0  0  0  0  0  0  0  0
  -20.4910  -12.8340   15.4940   C 0  0  0  0  0  0  0  0  0  0  0  0
  -14.0710  -12.7110   13.7440   O 0  0  0  0  0  0  0  0  0  0  0  0
  -19.6960  -12.1740   16.6220   C 0  0  0  0  0  0  0  0  0  0  0  0
  -10.6660   -4.9660   15.4030   O 0  0  0  0  0  0  0  0  0  0  0  0
  -14.4280   -4.0260   14.8000   C 0  0  0  0  0  0  0  0  0  0  0  0
  -12.9970   -8.5310   14.3630   C 0  0  0  0  0  0  0  0  0  0  0  0
  -12.5350  -15.8720   14.8210   C 0  0  0  0  0  0  0  0  0  0  0  0
  -15.5010   -4.9020   14.1650   C 0  0  0  0  0  0  0  0  0  0  0  0
  -13.4050  -18.0570   17.7950   C 0  0  0  0  0  0  0  0  0  0  0  0
  -13.5400   -9.9230   14.2870   C 0  0  0  0  0  0  0  0  0  0  0  0
  -12.7730  -17.6960   16.6090   C 0  0  0  0  0  0  0  0  0  0  0  0
  -14.3200  -17.1890   18.4040   C 0  0  0  0  0  0  0  0  0  0  0  0
  -15.3800   -4.8860   12.6370   C 0  0  0  0  0  0  0  0  0  0  0  0
  -16.5300   -5.6460   11.9650   C 0  0  0  0  0  0  0  0  0  0  0  0
  -18.3950  -10.6940   15.0440   C 0  0  0  0  0  0  0  0  0  0  0  0
  -14.5980  -15.9460   17.8250   C 0  0  0  0  0  0  0  0  0  0  0  0
  -16.4500   -7.1570   12.2070   C 0  0  0  0  0  0  0  0  0  0  0  0
   -8.1200   -7.5520   12.9370   C 0  0  0  0  0  0  0  0  0  0  0  0
  -13.0850  -16.4590   16.0700   C 0  0  0  0  0  0  0  0  0  0  0  0
  -17.4720   -7.6100   13.2580   C 0  0  0  0  0  0  0  0  0  0  0  0
  -13.9600  -15.6210   16.6620   C 0  0  0  0  0  0  0  0  0  0  0  0
  -12.7990  -10.7600   13.2580   C 0  0  0  0  0  0  0  0  0  0  0  0
  -17.2140   -9.0440   13.7220   C 0  0  0  0  0  0  0  0  0  0  0  0
   -6.6750   -7.3450   12.4910   C 0  0  0  0  0  0  0  0  0  0  0  0
  -13.8470  -11.7150   12.7560   C 0  0  0  0  0  0  0  0  0  0  0  0
  -14.1240  -14.3470   15.8930   C 0  0  0  0  0  0  0  0  0  0  0  0
   -6.9850   -8.3160   13.6260   C 0  0  0  0  0  0  0  0  0  0  0  0
  -15.8380   -9.1310   14.3320   C 0  0  0  0  0  0  0  0  0  0  0  0
  -15.1070  -10.8880   12.6770   C 0  0  0  0  0  0  0  0  0  0  0  0
  -13.1420  -13.7930   13.7410   C 0  0  0  0  0  0  0  0  0  0  0  0
  1  9  1  0  0  0  0
  1  6  1  0  0  0  0
  2 37  1  0  0  0  0
 36  3  1  0  0  0  0
  3 44  1  0  0  0  0
 24  4  1  0  0  0  0
  4 36  1  0  0  0  0
 14  5  2  0  0  0  0
 10  5  1  0  0  0  0
  5 39  1  0  0  0  0
  5 19  2  0  0  0  0
  9  6  1  0  0  0  0
  6  7  1  0  0  0  0
  6 12  1  0  0  0  0
  7 27  1  0  0  0  0
 36  8  2  0  0  0  0
  9 15  1  0  0  0  0
 12 10  1  0  0  0  0
 11 49  2  0  0  0  0
 25 12  2  0  0  0  0
 47 13  1  0  0  0  0
 28 13  1  0  0  0  0
 13 51  1  0  0  0  0
 15 26  2  0  0  0  0
 31 16  1  0  0  0  0
 49 16  1  0  0  0  0
 16 50  1  0  0  0  0
 51 17  2  0  0  0  0
 18 24  1  0  0  0  0
 20 24  1  0  0  0  0
 27 21  2  0  0  0  0
 24 22  1  0  0  0  0
 51 23  1  0  0  0  0
 23 46  1  0  0  0  0
 26 29  1  0  0  0  0
 31 27  1  0  0  0  0
 40 28  2  0  0  0  0
 29 34  1  0  0  0  0
 33 30  1  0  0  0  0
 30 32  2  0  0  0  0
 31 43  1  0  0  0  0
 32 40  1  0  0  0  0
 33 37  2  0  0  0  0
 34 35  1  0  0  0  0
 38 35  1  0  0  0  0
 37 42  1  0  0  0  0
 41 38  1  0  0  0  0
 48 39  1  0  0  0  0
 39 45  1  0  0  0  0
 42 40  1  0  0  0  0
 44 41  1  0  0  0  0
 42 47  2  0  0  0  0
 43 46  1  0  0  0  0
 49 44  1  0  0  0  0
 48 45  1  0  0  0  0
 46 50  1  0  0  0  0
M  END
>  <InstanceId>
3SU0_TSV_A_100

>  <ChemCompId>
TSV

>  <PdbId>
3SU0

>  <ChainId>
A

>  <ResidueNumber>
100

>  <InsertionCode>


>  <Model>
1

>  <AltIds>


>  <MissingHeavyAtoms>
0

>  <ObservedFormula>
C35 N5 O9 S F

>  <Name>
(2R,6S,12Z,13aS,14aR,16aS)-6-[(tert-butoxycarbonyl)amino]-14a-[(cyclopropylsulfonyl)carbamoyl]-5,16-dioxo-1,2,3,5,6,7,8 ,9,10,11,13a,14,14a,15,16,16a-hexadecahydrocyclopropa[e]pyrrolo[1,2-a][1,4]diazacyclopentadecin-2-yl 4-fluoro-2H-isoindole-2-carboxylate

>  <SystematicName>


>  <Synonyms>
ITMN-191; danoprevir

>  <Type>
NON-POLYMER

>  <Formula>
C35 H44 F N5 O9 S

>  <MolecularWeight>
729.815

>  <ModifiedDate>
2020-06-17

>  <Parent>


>  <OneLetterCode>


>  <SubcomponentList>


>  <AmbiguousFlag>
N

>  <InChI>
InChI=1S/C35H44FN5O9S/c1-34(2,3)50-32(45)37-27-13-8-6-4-5-7-11-22-17-35(22,31(44)39-51(47,48)24-14-15-24)38-29(42)28-16-23(19-41(28)30(27)43)49-33(46)40-18-21-10-9-12-26(36)25(21)20-40/h7,9-12,18,20,22-24,27-28H,4-6,8,13-17,19H2,1-3H3,(H,37,45)(H,38,42)(H,39,44)/b11-7-/t22-,23-,27+,28+,35-/m1/s1

>  <InChIKey>
YUWURHBDLJOUAP-JSZLBQEHSA-N

>  <SMILES>
CC(C)(C)OC(=O)N[C@H]1CCCCC/C=C\[C@@H]2C[C@]2(NC(=O)[C@@H]3C[C@H](CN3C1=O)OC(=O)n4cc5cccc(c5c4)F)C(=O)NS(=O)(=O)C6CC6

$$$$
