3LIW_RUP_A_1
  RCSB PDB08012019423D
Coordinates from PDB:3LIW:A:1 Model:1 without hydrogens
 36 40  0  0  0  0            999 V2000
   22.6860   33.6630   17.6950   C 0  0  0  0  0  0  0  0  0  0  0  0
   22.3920   32.8370   19.0030   C 0  0  0  0  0  0  0  0  0  0  0  0
   20.9150   32.2830   18.9640   C 0  0  0  0  0  0  0  0  0  0  0  0
   20.6240   31.4810   20.1780   N 0  0  0  0  0  0  0  0  0  0  0  0
   21.3170   30.3480   20.4790   C 0  0  0  0  0  0  0  0  0  0  0  0
   22.2250   29.9430   19.7520   O 0  0  0  0  0  0  0  0  0  0  0  0
   21.0090   29.6970   21.6410   N 0  0  0  0  0  0  0  0  0  0  0  0
   21.8130   28.5380   22.1240   C 0  0  0  0  0  0  0  0  0  0  0  0
   23.2690   28.9570   21.8030   C 0  0  0  0  0  0  0  0  0  0  0  0
   23.5240   30.1270   22.0760   O 0  0  0  0  0  0  0  0  0  0  0  0
   24.2930   28.2380   21.2650   N 0  0  0  0  0  0  0  0  0  0  0  0
   24.3760   26.8470   20.8350   C 0  0  0  0  0  0  0  0  0  0  0  0
   25.3870   25.9730   21.6410   C 0  0  0  0  0  0  0  0  0  0  0  0
   25.6450   26.4600   23.0880   C 0  0  0  0  0  0  0  0  0  0  0  0
   26.4310   27.6040   23.4430   C 0  0  0  0  0  0  0  0  0  0  0  0
   26.5920   27.9920   24.8050   C 0  0  0  0  0  0  0  0  0  0  0  0
   25.9670   27.2400   25.8360   C 0  0  0  0  0  0  0  0  0  0  0  0
   25.1850   26.1020   25.5000   C 0  0  0  0  0  0  0  0  0  0  0  0
   25.0290   25.7230   24.1380   C 0  0  0  0  0  0  0  0  0  0  0  0
   21.6790   28.3860   23.6760   C 0  0  0  0  0  0  0  0  0  0  0  0
   20.2770   28.0000   24.2340   C 0  0  0  0  0  0  0  0  0  0  0  0
   19.4400   26.9760   23.6740   C 0  0  0  0  0  0  0  0  0  0  0  0
   18.1650   26.6960   24.2560   C 0  0  0  0  0  0  0  0  0  0  0  0
   17.7140   27.4260   25.3950   C 0  0  0  0  0  0  0  0  0  0  0  0
   18.5420   28.4440   25.9600   C 0  0  0  0  0  0  0  0  0  0  0  0
   18.1030   29.2430   27.1770   C 0  0  0  0  0  0  0  0  0  0  0  0
   18.9830   30.0000   27.7820   N 0  0  0  0  0  0  0  0  0  0  0  0
   16.8730   29.1620   27.6160   N 0  0  0  0  0  0  0  0  0  0  0  0
   19.8080   28.7140   25.3700   C 0  0  0  0  0  0  0  0  0  0  0  0
   20.7380   31.3560   17.6940   C 0  0  0  0  0  0  0  0  0  0  0  0
   19.8930   33.5180   18.8920   C 0  0  0  0  0  0  0  0  0  0  0  0
   20.1970   34.3390   17.5620   C 0  0  0  0  0  0  0  0  0  0  0  0
   21.6870   34.8760   17.5870   C 0  0  0  0  0  0  0  0  0  0  0  0
   20.0250   33.3940   16.3070   C 0  0  0  0  0  0  0  0  0  0  0  0
   22.5060   32.7260   16.4380   C 0  0  0  0  0  0  0  0  0  0  0  0
   21.0260   32.1870   16.3900   C 0  0  0  0  0  0  0  0  0  0  0  0
  1  2  1  0  0  0  0
  1 33  1  0  0  0  0
  1 35  1  0  0  0  0
  2  3  1  0  0  0  0
  3  4  1  0  0  0  0
  3 30  1  0  0  0  0
  3 31  1  0  0  0  0
  4  5  1  0  0  0  0
  5  6  2  0  0  0  0
  5  7  1  0  0  0  0
  7  8  1  0  0  0  0
  8  9  1  0  0  0  0
  8 20  1  0  0  0  0
  9 10  2  0  0  0  0
  9 11  1  0  0  0  0
 11 12  1  0  0  0  0
 12 13  1  0  0  0  0
 13 14  1  0  0  0  0
 14 15  2  0  0  0  0
 14 19  1  0  0  0  0
 15 16  1  0  0  0  0
 16 17  2  0  0  0  0
 17 18  1  0  0  0  0
 18 19  2  0  0  0  0
 20 21  1  0  0  0  0
 21 22  2  0  0  0  0
 21 29  1  0  0  0  0
 22 23  1  0  0  0  0
 23 24  2  0  0  0  0
 24 25  1  0  0  0  0
 25 26  1  0  0  0  0
 25 29  2  0  0  0  0
 26 27  1  0  0  0  0
 26 28  2  0  0  0  0
 30 36  1  0  0  0  0
 31 32  1  0  0  0  0
 32 33  1  0  0  0  0
 32 34  1  0  0  0  0
 34 36  1  0  0  0  0
 35 36  1  0  0  0  0
M  END
>  <InstanceId>
3LIW_RUP_A_1

>  <ChemCompId>
RUP

>  <PdbId>
3LIW

>  <ChainId>
A

>  <ResidueNumber>
1

>  <InsertionCode>


>  <Model>
1

>  <AltIds>


>  <MissingHeavyAtoms>
0

>  <ObservedFormula>
C29 N5 O2

>  <Name>
(R)-2-(3-ADAMANTAN-1-YL-UREIDO)-3-(3-CARBAMIMIDOYL-PHENYL)-N-PHENETHYL-PROPIONAMIDE

>  <SystematicName>
(2R)-2-(1-adamantylcarbamoylamino)-3-(3-carbamimidoylphenyl)-N-phenethyl-propanamide

>  <Synonyms>


>  <Type>
NON-POLYMER

>  <Formula>
C29 H37 N5 O2

>  <MolecularWeight>
487.636

>  <ModifiedDate>
2011-06-04

>  <Parent>


>  <OneLetterCode>


>  <SubcomponentList>


>  <AmbiguousFlag>
N

>  <InChI>
InChI=1S/C29H37N5O2/c30-26(31)24-8-4-7-20(14-24)15-25(27(35)32-10-9-19-5-2-1-3-6-19)33-28(36)34-29-16-21-11-22(17-29)13-23(12-21)18-29/h1-8,14,21-23,25H,9-13,15-18H2,(H3,30,31)(H,32,35)(H2,33,34,36)/t21-,22+,23-,25-,29-/m1/s1

>  <InChIKey>
QYKLXCYULDLMPX-ZEFMGYOLSA-N

>  <SMILES>
c1ccc(cc1)CCNC(=O)[C@@H](Cc2cccc(c2)C(=N)N)NC(=O)NC34CC5CC(C3)CC(C5)C4

$$$$
