2Q55_MU0_B_200
  RCSB PDB08012017473D
Coordinates from PDB:2Q55:B:200 Model:1 without hydrogens
 48 52  0  0  0  0            999 V2000
   18.6510   32.5180   13.8040   O 0  0  0  0  0  0  0  0  0  0  0  0
   18.3230   32.3600   14.9860   C 0  0  0  0  0  0  0  0  0  0  0  0
   17.0020   32.9580   15.4550   C 0  0  0  0  0  0  0  0  0  0  0  0
   16.5830   32.5760   16.7840   O 0  0  0  0  0  0  0  0  0  0  0  0
   15.9920   33.7530   17.3750   C 0  0  0  0  0  0  0  0  0  0  0  0
   15.3650   33.7590   18.4220   O 0  0  0  0  0  0  0  0  0  0  0  0
   16.2380   34.8040   16.6120   N 0  0  0  0  0  0  0  0  0  0  0  0
   17.0210   34.4920   15.4250   C 0  0  0  0  0  0  0  0  0  0  0  0
   15.9240   36.1130   17.0290   C 0  0  0  0  0  0  0  0  0  0  0  0
   14.6340   36.4350   17.4360   C 0  0  0  0  0  0  0  0  0  0  0  0
   14.3410   37.7280   17.8560   C 0  0  0  0  0  0  0  0  0  0  0  0
   15.3310   38.6990   17.8820   C 0  0  0  0  0  0  0  0  0  0  0  0
   16.6190   38.3750   17.4850   C 0  0  0  0  0  0  0  0  0  0  0  0
   16.9130   37.0860   17.0580   C 0  0  0  0  0  0  0  0  0  0  0  0
   19.0720   31.6510   15.8420   N 0  0  0  0  0  0  0  0  0  0  0  0
   20.2740   30.9420   15.4000   C 0  0  0  0  0  0  0  0  0  0  0  0
   21.5180   31.4370   16.1380   C 0  0  0  0  0  0  0  0  0  0  0  0
   21.7520   32.8990   15.8760   C 0  0  0  0  0  0  0  0  0  0  0  0
   22.1980   33.3110   14.6260   C 0  0  0  0  0  0  0  0  0  0  0  0
   22.4140   34.6550   14.3870   C 0  0  0  0  0  0  0  0  0  0  0  0
   21.5200   33.8440   16.8840   C 0  0  0  0  0  0  0  0  0  0  0  0
   21.7370   35.2000   16.6380   C 0  0  0  0  0  0  0  0  0  0  0  0
   22.1830   35.6040   15.3860   C 0  0  0  0  0  0  0  0  0  0  0  0
   20.1340   29.4300   15.6030   C 0  0  0  0  0  0  0  0  0  0  0  0
   19.9170   29.1300   16.9890   O 0  0  0  0  0  0  0  0  0  0  0  0
   18.9610   28.8070   14.8480   C 0  0  0  0  0  0  0  0  0  0  0  0
   19.1670   28.6470   13.3470   C 0  0  0  0  0  0  0  0  0  0  0  0
   20.4560   28.0440   13.0440   N 0  0  0  0  0  0  0  0  0  0  0  0
   21.3020   28.5020   12.1140   C 0  0  0  0  0  0  0  0  0  0  0  0
   21.1400   29.5080   11.4360   O 0  0  0  0  0  0  0  0  0  0  0  0
   22.5040   27.6150   11.8970   C 0  0  0  0  0  0  0  0  0  0  0  0
   23.7960   28.4390   11.9200   C 0  0  0  0  0  0  0  0  0  0  0  0
   23.8640   29.2340   13.2210   C 0  0  0  0  0  0  0  0  0  0  0  0
   24.9990   27.5290   11.7340   C 0  0  0  0  0  0  0  0  0  0  0  0
   22.3800   26.8110   10.6580   N 0  0  0  0  0  0  0  0  0  0  0  0
   22.3410   27.5590    9.3990   C 0  0  0  0  0  0  0  0  0  0  0  0
   23.0260   26.6630    8.3790   C 0  0  0  0  0  0  0  0  0  0  0  0
   22.2320   25.4820   10.7600   C 0  0  0  0  0  0  0  0  0  0  0  0
   22.1330   24.9370   11.8530   O 0  0  0  0  0  0  0  0  0  0  0  0
   22.1630   24.7630    9.6380   N 0  0  0  0  0  0  0  0  0  0  0  0
   22.2630   25.3450    8.3120   C 0  0  0  0  0  0  0  0  0  0  0  0
   18.0310   27.7420   12.8820   C 0  0  0  0  0  0  0  0  0  0  0  0
   18.0500   27.5000   11.3980   C 0  0  0  0  0  0  0  0  0  0  0  0
   18.6210   26.3450   10.8760   C 0  0  0  0  0  0  0  0  0  0  0  0
   18.6170   26.1360    9.5030   C 0  0  0  0  0  0  0  0  0  0  0  0
   18.0340   27.0700    8.6600   C 0  0  0  0  0  0  0  0  0  0  0  0
   17.4520   28.2100    9.1920   C 0  0  0  0  0  0  0  0  0  0  0  0
   17.4660   28.4270   10.5620   C 0  0  0  0  0  0  0  0  0  0  0  0
  1  2  2  0  0  0  0
  2  3  1  0  0  0  0
  2 15  1  0  0  0  0
  3  8  1  0  0  0  0
  3  4  1  0  0  0  0
  4  5  1  0  0  0  0
  5  7  1  0  0  0  0
  5  6  2  0  0  0  0
  7  8  1  0  0  0  0
  7  9  1  0  0  0  0
  9 14  2  0  0  0  0
  9 10  1  0  0  0  0
 10 11  2  0  0  0  0
 11 12  1  0  0  0  0
 12 13  2  0  0  0  0
 13 14  1  0  0  0  0
 15 16  1  0  0  0  0
 16 24  1  0  0  0  0
 16 17  1  0  0  0  0
 17 18  1  0  0  0  0
 18 19  1  0  0  0  0
 18 21  2  0  0  0  0
 19 20  2  0  0  0  0
 20 23  1  0  0  0  0
 21 22  1  0  0  0  0
 22 23  2  0  0  0  0
 24 26  1  0  0  0  0
 24 25  1  0  0  0  0
 26 27  1  0  0  0  0
 27 42  1  0  0  0  0
 27 28  1  0  0  0  0
 28 29  1  0  0  0  0
 29 30  2  0  0  0  0
 29 31  1  0  0  0  0
 31 35  1  0  0  0  0
 31 32  1  0  0  0  0
 32 34  1  0  0  0  0
 32 33  1  0  0  0  0
 35 36  1  0  0  0  0
 35 38  1  0  0  0  0
 36 37  1  0  0  0  0
 37 41  1  0  0  0  0
 38 40  1  0  0  0  0
 38 39  2  0  0  0  0
 40 41  1  0  0  0  0
 42 43  1  0  0  0  0
 43 48  2  0  0  0  0
 43 44  1  0  0  0  0
 44 45  2  0  0  0  0
 45 46  1  0  0  0  0
 46 47  2  0  0  0  0
 47 48  1  0  0  0  0
M  END
>  <InstanceId>
2Q55_MU0_B_200

>  <ChemCompId>
MU0

>  <PdbId>
2Q55

>  <ChainId>
B

>  <ResidueNumber>
200

>  <InsertionCode>


>  <Model>
1

>  <AltIds>


>  <MissingHeavyAtoms>
0

>  <ObservedFormula>
C37 N5 O6

>  <Name>
(5S)-N-[(1S,2S,4S)-1-BENZYL-2-HYDROXY-4-{[(2S)-3-METHYL-2-(2-OXOTETRAHYDROPYRIMIDIN-1(2H)-YL)BUTANOYL]AMINO}-5-PHENYLPENTYL]-2-OXO-3-PHENYL-1,3-OXAZOLIDINE-5-CARBOXAMIDE

>  <SystematicName>
(5S)-N-[(2S,3S,5S)-3-hydroxy-5-[[(2S)-3-methyl-2-(2-oxo-1,3-diazinan-1-yl)butanoyl]amino]-1,6-diphenyl-hexan-2-yl]-2-oxo-3-phenyl-1,3-oxazolidine-5-carboxamide

>  <Synonyms>


>  <Type>
NON-POLYMER

>  <Formula>
C37 H45 N5 O6

>  <MolecularWeight>
655.783

>  <ModifiedDate>
2011-06-04

>  <Parent>


>  <OneLetterCode>


>  <SubcomponentList>


>  <AmbiguousFlag>


>  <InChI>
InChI=1S/C37H45N5O6/c1-25(2)33(41-20-12-19-38-36(41)46)35(45)39-28(21-26-13-6-3-7-14-26)23-31(43)30(22-27-15-8-4-9-16-27)40-34(44)32-24-42(37(47)48-32)29-17-10-5-11-18-29/h3-11,13-18,25,28,30-33,43H,12,19-24H2,1-2H3,(H,38,46)(H,39,45)(H,40,44)/t28-,30-,31-,32-,33-/m0/s1

>  <InChIKey>
YTEURAFEAFHROU-FLIXOAOSSA-N

>  <SMILES>
CC(C)[C@@H](C(=O)N[C@@H](Cc1ccccc1)C[C@@H]([C@H](Cc2ccccc2)NC(=O)[C@@H]3CN(C(=O)O3)c4ccccc4)O)N5CCCNC5=O

$$$$
