2V57_PRL_A_1188
  RCSB PDB08012017593D
Coordinates from PDB:2V57:A:1188 Model:1 without hydrogens
 16 18  0  0  0  0            999 V2000
    5.7110   -3.8290    4.7020   C 0  0  0  0  0  0  0  0  0  0  0  0
    6.4370   -3.0180    3.8200   C 0  0  0  0  0  0  0  0  0  0  0  0
    7.8300   -2.9470    3.9400   C 0  0  0  0  0  0  0  0  0  0  0  0
    8.4930   -3.6860    4.9140   C 0  0  0  0  0  0  0  0  0  0  0  0
    8.5040   -6.6940    8.5770   C 0  0  0  0  0  0  0  0  0  0  0  0
    7.8300   -7.5120    9.4890   C 0  0  0  0  0  0  0  0  0  0  0  0
    6.4510   -7.6270    9.4210   C 0  0  0  0  0  0  0  0  0  0  0  0
    5.7400   -6.9250    8.4610   C 0  0  0  0  0  0  0  0  0  0  0  0
    5.6840   -5.3820    6.5860   C 0  0  0  0  0  0  0  0  0  0  0  0
    8.4280   -5.1940    6.7350   N 0  0  0  0  0  0  0  0  0  0  0  0
    7.7690   -4.4840    5.7940   C 0  0  0  0  0  0  0  0  0  0  0  0
    6.4010   -6.0980    7.5560   C 0  0  0  0  0  0  0  0  0  0  0  0
    6.3790   -4.5650    5.6890   C 0  0  0  0  0  0  0  0  0  0  0  0
    7.7810   -5.9940    7.6090   C 0  0  0  0  0  0  0  0  0  0  0  0
    8.5350   -2.1670    3.0930   N 0  0  0  0  0  0  0  0  0  0  0  0
    8.5080   -8.2100   10.4340   N 0  0  0  0  0  0  0  0  0  0  0  0
  1  2  2  0  0  0  0
  1 13  1  0  0  0  0
  2  3  1  0  0  0  0
  3  4  2  0  0  0  0
  3 15  1  0  0  0  0
  4 11  1  0  0  0  0
  5  6  2  0  0  0  0
  5 14  1  0  0  0  0
  6  7  1  0  0  0  0
  6 16  1  0  0  0  0
  7  8  2  0  0  0  0
  8 12  1  0  0  0  0
  9 12  2  0  0  0  0
  9 13  1  0  0  0  0
 10 11  1  0  0  0  0
 10 14  2  0  0  0  0
 11 13  2  0  0  0  0
 12 14  1  0  0  0  0
M  END
>  <InstanceId>
2V57_PRL_A_1188

>  <ChemCompId>
PRL

>  <PdbId>
2V57

>  <ChainId>
A

>  <ResidueNumber>
1188

>  <InsertionCode>


>  <Model>
1

>  <AltIds>


>  <MissingHeavyAtoms>
0

>  <ObservedFormula>
C13 N3

>  <Name>
PROFLAVIN

>  <SystematicName>
acridine-3,6-diamine

>  <Synonyms>


>  <Type>
NON-POLYMER

>  <Formula>
C13 H11 N3

>  <MolecularWeight>
209.247

>  <ModifiedDate>
2011-06-04

>  <Parent>


>  <OneLetterCode>


>  <SubcomponentList>


>  <AmbiguousFlag>
N

>  <InChI>
InChI=1S/C13H11N3/c14-10-3-1-8-5-9-2-4-11(15)7-13(9)16-12(8)6-10/h1-7H,14-15H2

>  <InChIKey>
WDVSHHCDHLJJJR-UHFFFAOYSA-N

>  <SMILES>
c1cc(cc2c1cc3ccc(cc3n2)N)N

$$$$
