5E2S_5CX_A_302
  RCSB PDB08022001103D
Coordinates from PDB:5E2S:A:302 Model:1 without hydrogens
 19 20  0  0  0  0            999 V2000
   -5.9150    0.8950   16.8260   S 0  0  0  0  0  0  0  0  0  0  0  0
   -5.1920   -0.4390   16.1700   N 0  0  0  0  0  0  0  0  0  0  0  0
   -7.3270    0.8820   16.7700   O 0  0  0  0  0  0  0  0  0  0  0  0
   -5.3560    1.0330   18.0380   O 0  0  0  0  0  0  0  0  0  0  0  0
   -5.5600    2.2520   15.7680   C 0  0  0  0  0  0  0  0  0  0  0  0
   -4.4710    2.2530   14.9380   C 0  0  0  0  0  0  0  0  0  0  0  0
   -4.2380    3.3410   14.1040   C 0  0  0  0  0  0  0  0  0  0  0  0
   -5.0890    4.4460   14.1570   C 0  0  0  0  0  0  0  0  0  0  0  0
   -6.1780    4.4090   14.9850   C 0  0  0  0  0  0  0  0  0  0  0  0
   -6.4030    3.3380   15.8140   C 0  0  0  0  0  0  0  0  0  0  0  0
   -4.9160    5.5880   13.2250   C 0  0  0  0  0  0  0  0  0  0  0  0
   -6.0180    5.8880   12.4140   C 0  0  0  0  0  0  0  0  0  0  0  0
   -6.0120    6.8990   11.4840   C 0  0  0  0  0  0  0  0  0  0  0  0
   -4.8270    7.6050   11.3310   C 0  0  0  0  0  0  0  0  0  0  0  0
   -3.7180    7.3120   12.1270   C 0  0  0  0  0  0  0  0  0  0  0  0
   -3.7630    6.2970   13.0730   C 0  0  0  0  0  0  0  0  0  0  0  0
   -2.5890    5.9950   13.9210   C 0  0  0  0  0  0  0  0  0  0  0  0
   -1.5430    5.4440   12.9750   C 0  0  0  0  0  0  0  0  0  0  0  0
   -2.0400    7.2900   14.5120   C 0  0  0  0  0  0  0  0  0  0  0  0
 14 13  2  0  0  0  0
 14 15  1  0  0  0  0
 13 12  1  0  0  0  0
 15 16  2  0  0  0  0
 12 11  2  0  0  0  0
 18 17  1  0  0  0  0
 16 11  1  0  0  0  0
 16 17  1  0  0  0  0
 11  8  1  0  0  0  0
 17 19  1  0  0  0  0
  7  8  2  0  0  0  0
  7  6  1  0  0  0  0
  8  9  1  0  0  0  0
  6  5  2  0  0  0  0
  9 10  2  0  0  0  0
  5 10  1  0  0  0  0
  5  1  1  0  0  0  0
  2  1  1  0  0  0  0
  3  1  2  0  0  0  0
  1  4  2  0  0  0  0
M  END
>  <InstanceId>
5E2S_5CX_A_302

>  <ChemCompId>
5CX

>  <PdbId>
5E2S

>  <ChainId>
A

>  <ResidueNumber>
302

>  <InsertionCode>


>  <Model>
1

>  <AltIds>


>  <MissingHeavyAtoms>
0

>  <ObservedFormula>
C15 N O2 S

>  <Name>
2'-(propan-2-yl)biphenyl-4-sulfonamide

>  <SystematicName>
4-(2-propan-2-ylphenyl)benzenesulfonamide

>  <Synonyms>


>  <Type>
NON-POLYMER

>  <Formula>
C15 H17 N O2 S

>  <MolecularWeight>
275.366

>  <ModifiedDate>
2016-01-15

>  <Parent>


>  <OneLetterCode>


>  <SubcomponentList>


>  <AmbiguousFlag>
N

>  <InChI>
InChI=1S/C15H17NO2S/c1-11(2)14-5-3-4-6-15(14)12-7-9-13(10-8-12)19(16,17)18/h3-11H,1-2H3,(H2,16,17,18)

>  <InChIKey>
IRABTZHXKCTBRE-UHFFFAOYSA-N

>  <SMILES>
CC(C)c1ccccc1c2ccc(cc2)S(=O)(=O)N

$$$$
