4EMF_M7G_A_304
  RCSB PDB08012021373D
Coordinates from PDB:4EMF:A:304 Model:1 without hydrogens
 29 31  0  0  0  0            999 V2000
   -6.0820  -21.3320  -21.6960   P 0  0  0  0  0  0  0  0  0  0  0  0
   -7.3790  -22.0970  -21.9020   O 0  0  0  0  0  0  0  0  0  0  0  0
   -5.7330  -20.2010  -22.5810   O 0  0  0  0  0  0  0  0  0  0  0  0
   -4.8800  -22.4190  -21.6680   O 0  0  0  0  0  0  0  0  0  0  0  0
   -6.0280  -21.0190  -20.1080   O 0  0  0  0  0  0  0  0  0  0  0  0
   -4.1330  -23.2600  -22.8240   P 0  0  0  0  0  0  0  0  0  0  0  0
   -4.4320  -22.6630  -24.1840   O 0  0  0  0  0  0  0  0  0  0  0  0
   -2.6890  -23.1200  -22.4910   O 0  0  0  0  0  0  0  0  0  0  0  0
   -4.6720  -24.6590  -22.6530   O 0  0  0  0  0  0  0  0  0  0  0  0
   -4.8520  -20.5280  -19.4610   C 0  0  0  0  0  0  0  0  0  0  0  0
   -4.5140  -21.2830  -18.1860   C 0  0  0  0  0  0  0  0  0  0  0  0
   -5.7480  -21.6040  -17.5590   O 0  0  0  0  0  0  0  0  0  0  0  0
   -3.8140  -22.6120  -18.4780   C 0  0  0  0  0  0  0  0  0  0  0  0
   -3.1960  -23.1630  -17.2830   O 0  0  0  0  0  0  0  0  0  0  0  0
   -4.9950  -23.4680  -18.8290   C 0  0  0  0  0  0  0  0  0  0  0  0
   -4.6930  -24.8110  -18.4820   O 0  0  0  0  0  0  0  0  0  0  0  0
   -6.0450  -22.9560  -17.8740   C 0  0  0  0  0  0  0  0  0  0  0  0
   -7.4150  -22.9460  -18.3650   N 0  0  0  0  0  0  0  0  0  0  0  0
   -7.6890  -23.5620  -19.6610   C 0  0  0  0  0  0  0  0  0  0  0  0
   -9.1230  -23.2650  -19.6190   N 0  0  0  0  0  0  0  0  0  0  0  0
   -9.8190  -23.7670  -20.8400   C 0  0  0  0  0  0  0  0  0  0  0  0
   -9.5530  -22.6140  -18.5180   C 0  0  0  0  0  0  0  0  0  0  0  0
  -10.8400  -22.1250  -18.0160   C 0  0  0  0  0  0  0  0  0  0  0  0
  -11.8750  -22.2950  -18.6940   O 0  0  0  0  0  0  0  0  0  0  0  0
  -10.8170  -21.5190  -16.8010   N 0  0  0  0  0  0  0  0  0  0  0  0
   -9.6800  -21.3380  -16.0710   C 0  0  0  0  0  0  0  0  0  0  0  0
   -9.6650  -20.7400  -14.8620   N 0  0  0  0  0  0  0  0  0  0  0  0
   -8.4930  -21.7860  -16.4780   N 0  0  0  0  0  0  0  0  0  0  0  0
   -8.3860  -22.3930  -17.6790   C 0  0  0  0  0  0  0  0  0  0  0  0
  1  2  2  0  0  0  0
  1  3  1  0  0  0  0
  1  4  1  0  0  0  0
  1  5  1  0  0  0  0
  4  6  1  0  0  0  0
  5 10  1  0  0  0  0
  6  7  2  0  0  0  0
  6  8  1  0  0  0  0
  6  9  1  0  0  0  0
 10 11  1  0  0  0  0
 11 12  1  0  0  0  0
 11 13  1  0  0  0  0
 12 17  1  0  0  0  0
 13 14  1  0  0  0  0
 13 15  1  0  0  0  0
 15 16  1  0  0  0  0
 15 17  1  0  0  0  0
 17 18  1  0  0  0  0
 18 19  1  0  0  0  0
 18 29  1  0  0  0  0
 19 20  1  0  0  0  0
 20 21  1  0  0  0  0
 20 22  1  0  0  0  0
 22 23  1  0  0  0  0
 22 29  2  0  0  0  0
 23 24  2  0  0  0  0
 23 25  1  0  0  0  0
 25 26  1  0  0  0  0
 26 27  1  0  0  0  0
 26 28  2  0  0  0  0
 28 29  1  0  0  0  0
M  END
>  <InstanceId>
4EMF_M7G_A_304

>  <ChemCompId>
M7G

>  <PdbId>
4EMF

>  <ChainId>
A

>  <ResidueNumber>
304

>  <InsertionCode>


>  <Model>
1

>  <AltIds>


>  <MissingHeavyAtoms>
0

>  <ObservedFormula>
C11 N5 O11 P2

>  <Name>
7N-METHYL-8-HYDROGUANOSINE-5'-DIPHOSPHATE

>  <SystematicName>
[(2R,3S,4R,5R)-5-(2-amino-7-methyl-6-oxo-1,8-dihydropurin-9-yl)-3,4-dihydroxy-oxolan-2-yl]methyl phosphono hydrogen phosphate

>  <Synonyms>


>  <Type>
NON-POLYMER

>  <Formula>
C11 H19 N5 O11 P2

>  <MolecularWeight>
459.243

>  <ModifiedDate>
2011-06-04

>  <Parent>


>  <OneLetterCode>


>  <SubcomponentList>


>  <AmbiguousFlag>
N

>  <InChI>
InChI=1S/C11H19N5O11P2/c1-15-3-16(8-5(15)9(19)14-11(12)13-8)10-7(18)6(17)4(26-10)2-25-29(23,24)27-28(20,21)22/h4,6-7,10,17-18H,2-3H2,1H3,(H,23,24)(H2,20,21,22)(H3,12,13,14,19)/t4-,6-,7-,10-/m1/s1

>  <InChIKey>
QQODJOAVWUWVHJ-KQYNXXCUSA-N

>  <SMILES>
CN1CN(C2=C1C(=O)NC(=N2)N)[C@H]3[C@@H]([C@@H]([C@H](O3)CO[P@](=O)(O)OP(=O)(O)O)O)O

$$$$
