1LHU_EST_A_301
  RCSB PDB08012015233D
Coordinates from PDB:1LHU:A:301 Model:1 without hydrogens
 20 23  0  0  0  0            999 V2000
   20.8340    8.7500   33.1660   C 0  0  0  0  0  0  0  0  0  0  0  0
   19.5420    8.2930   33.2950   C 0  0  0  0  0  0  0  0  0  0  0  0
   18.4990    9.1910   33.5750   C 0  0  0  0  0  0  0  0  0  0  0  0
   17.2330    8.6960   33.6900   O 0  0  0  0  0  0  0  0  0  0  0  0
   18.8040   10.5710   33.7190   C 0  0  0  0  0  0  0  0  0  0  0  0
   20.1150   11.0470   33.5880   C 0  0  0  0  0  0  0  0  0  0  0  0
   20.3720   12.5580   33.7540   C 0  0  0  0  0  0  0  0  0  0  0  0
   21.8630   12.9870   33.6970   C 0  0  0  0  0  0  0  0  0  0  0  0
   22.6880   12.1520   32.7090   C 0  0  0  0  0  0  0  0  0  0  0  0
   22.6420   10.6140   33.1440   C 0  0  0  0  0  0  0  0  0  0  0  0
   21.1850   10.1210   33.2980   C 0  0  0  0  0  0  0  0  0  0  0  0
   23.4760    9.7400   32.1680   C 0  0  0  0  0  0  0  0  0  0  0  0
   24.9130   10.2600   32.0010   C 0  0  0  0  0  0  0  0  0  0  0  0
   24.9570   11.7460   31.5500   C 0  0  0  0  0  0  0  0  0  0  0  0
   24.1760   12.5870   32.6000   C 0  0  0  0  0  0  0  0  0  0  0  0
   24.4940   14.0470   32.2090   C 0  0  0  0  0  0  0  0  0  0  0  0
   25.9340   13.9470   31.6090   C 0  0  0  0  0  0  0  0  0  0  0  0
   26.3000   12.4550   31.6550   C 0  0  0  0  0  0  0  0  0  0  0  0
   27.1830   12.1630   30.5530   O 0  0  0  0  0  0  0  0  0  0  0  0
   24.3800   11.8400   30.1030   C 0  0  0  0  0  0  0  0  0  0  0  0
  1  2  2  0  0  0  0
  1 11  1  0  0  0  0
  2  3  1  0  0  0  0
  3  4  1  0  0  0  0
  3  5  2  0  0  0  0
  5  6  1  0  0  0  0
  6  7  1  0  0  0  0
  6 11  2  0  0  0  0
  7  8  1  0  0  0  0
  8  9  1  0  0  0  0
  9 10  1  0  0  0  0
  9 15  1  0  0  0  0
 10 11  1  0  0  0  0
 10 12  1  0  0  0  0
 12 13  1  0  0  0  0
 13 14  1  0  0  0  0
 14 15  1  0  0  0  0
 14 18  1  0  0  0  0
 14 20  1  0  0  0  0
 15 16  1  0  0  0  0
 16 17  1  0  0  0  0
 17 18  1  0  0  0  0
 18 19  1  0  0  0  0
M  END
>  <InstanceId>
1LHU_EST_A_301

>  <ChemCompId>
EST

>  <PdbId>
1LHU

>  <ChainId>
A

>  <ResidueNumber>
301

>  <InsertionCode>


>  <Model>
1

>  <AltIds>


>  <MissingHeavyAtoms>
0

>  <ObservedFormula>
C18 O2

>  <Name>
ESTRADIOL

>  <SystematicName>
(8R,9S,13S,14S,17S)-13-methyl-6,7,8,9,11,12,14,15,16,17-decahydrocyclopenta[a]phenanthrene-3,17-diol

>  <Synonyms>


>  <Type>
NON-POLYMER

>  <Formula>
C18 H24 O2

>  <MolecularWeight>
272.382

>  <ModifiedDate>
2011-06-04

>  <Parent>


>  <OneLetterCode>


>  <SubcomponentList>


>  <AmbiguousFlag>
N

>  <InChI>
InChI=1S/C18H24O2/c1-18-9-8-14-13-5-3-12(19)10-11(13)2-4-15(14)16(18)6-7-17(18)20/h3,5,10,14-17,19-20H,2,4,6-9H2,1H3/t14-,15-,16+,17+,18+/m1/s1

>  <InChIKey>
VOXZDWNPVJITMN-ZBRFXRBCSA-N

>  <SMILES>
C[C@]12CC[C@@H]3c4ccc(cc4CC[C@H]3[C@@H]1CC[C@@H]2O)O

$$$$
