3O84_HTJ_A_995
  RCSB PDB08012019593D
Coordinates from PDB:3O84:A:995 Model:1 without hydrogens
 25 28  0  0  0  0            999 V2000
  -26.0130   -6.7110   15.7700   C 0  0  0  0  0  0  0  0  0  0  0  0
  -26.5260   -6.6180   14.4700   C 0  0  0  0  0  0  0  0  0  0  0  0
  -25.6570   -6.4870   13.3840   C 0  0  0  0  0  0  0  0  0  0  0  0
  -24.2820   -6.4540   13.6650   C 0  0  0  0  0  0  0  0  0  0  0  0
  -23.8100   -6.5470   14.9800   C 0  0  0  0  0  0  0  0  0  0  0  0
  -24.6870   -6.6630   15.9970   N 0  0  0  0  0  0  0  0  0  0  0  0
  -26.1860   -6.3840   11.9390   C 0  0  0  0  0  0  0  0  0  0  0  0
  -25.0660   -5.8580   11.1550   N 0  0  0  0  0  0  0  0  0  0  0  0
  -24.0360   -6.4940   10.5960   C 0  0  0  0  0  0  0  0  0  0  0  0
  -23.2420   -5.4840   10.0760   C 0  0  0  0  0  0  0  0  0  0  0  0
  -23.8160   -4.1910   10.3520   C 0  0  0  0  0  0  0  0  0  0  0  0
  -24.9560   -4.4560   11.0390   N 0  0  0  0  0  0  0  0  0  0  0  0
  -23.7340   -7.7900   10.4820   N 0  0  0  0  0  0  0  0  0  0  0  0
  -22.6230   -8.1920    9.8480   C 0  0  0  0  0  0  0  0  0  0  0  0
  -21.7670   -7.2370    9.2810   C 0  0  0  0  0  0  0  0  0  0  0  0
  -22.0760   -5.8720    9.3910   C 0  0  0  0  0  0  0  0  0  0  0  0
  -21.1610   -4.8390    8.7880   C 0  0  0  0  0  0  0  0  0  0  0  0
  -20.3330   -5.1930    7.9310   O 0  0  0  0  0  0  0  0  0  0  0  0
  -21.2200   -3.6420    9.1530   O 0  0  0  0  0  0  0  0  0  0  0  0
  -22.3660   -9.6560    9.7730   C 0  0  0  0  0  0  0  0  0  0  0  0
  -23.1510  -10.5250   10.5450   C 0  0  0  0  0  0  0  0  0  0  0  0
  -22.9350  -11.9050   10.4880   C 0  0  0  0  0  0  0  0  0  0  0  0
  -21.9410  -12.4240    9.6560   C 0  0  0  0  0  0  0  0  0  0  0  0
  -21.1480  -11.5670    8.8880   C 0  0  0  0  0  0  0  0  0  0  0  0
  -21.3680  -10.1790    8.9390   C 0  0  0  0  0  0  0  0  0  0  0  0
  2  1  2  0  0  0  0
  1  6  1  0  0  0  0
  3  2  1  0  0  0  0
  7  3  1  0  0  0  0
  3  4  2  0  0  0  0
  4  5  1  0  0  0  0
  5  6  2  0  0  0  0
  8  7  1  0  0  0  0
  9  8  1  0  0  0  0
 12  8  1  0  0  0  0
 10  9  2  0  0  0  0
 13  9  1  0  0  0  0
 16 10  1  0  0  0  0
 10 11  1  0  0  0  0
 11 12  2  0  0  0  0
 14 13  2  0  0  0  0
 15 14  1  0  0  0  0
 20 14  1  0  0  0  0
 15 16  2  0  0  0  0
 17 16  1  0  0  0  0
 18 17  2  0  0  0  0
 17 19  1  0  0  0  0
 25 20  2  0  0  0  0
 20 21  1  0  0  0  0
 22 21  2  0  0  0  0
 23 22  1  0  0  0  0
 24 23  2  0  0  0  0
 24 25  1  0  0  0  0
M  END
>  <InstanceId>
3O84_HTJ_A_995

>  <ChemCompId>
HTJ

>  <PdbId>
3O84

>  <ChainId>
A

>  <ResidueNumber>
995

>  <InsertionCode>


>  <Model>
1

>  <AltIds>


>  <MissingHeavyAtoms>
0

>  <ObservedFormula>
C19 N4 O2

>  <Name>
6-phenyl-1-(pyridin-4-ylmethyl)-1H-pyrazolo[3,4-b]pyridine-4-carboxylic acid

>  <SystematicName>
6-phenyl-1-(pyridin-4-ylmethyl)pyrazolo[3,4-b]pyridine-4-carboxylic acid

>  <Synonyms>


>  <Type>
NON-POLYMER

>  <Formula>
C19 H14 N4 O2

>  <MolecularWeight>
330.34

>  <ModifiedDate>
2011-06-04

>  <Parent>


>  <OneLetterCode>


>  <SubcomponentList>


>  <AmbiguousFlag>
N

>  <InChI>
InChI=1S/C19H14N4O2/c24-19(25)15-10-17(14-4-2-1-3-5-14)22-18-16(15)11-21-23(18)12-13-6-8-20-9-7-13/h1-11H,12H2,(H,24,25)

>  <InChIKey>
KCTGBSZXRNRGOD-UHFFFAOYSA-N

>  <SMILES>
c1ccc(cc1)c2cc(c3cnn(c3n2)Cc4ccncc4)C(=O)O

$$$$
