4OMK_SQL_A_305
  RCSB PDB08012022463D
Coordinates from PDB:4OMK:A:305 Model:1 without hydrogens
 30 29  0  0  0  0            999 V2000
   13.8780   -0.2390    8.9390   C 0  0  0  0  0  0  0  0  0  0  0  0
   14.1480    0.7280    7.8130   C 0  0  0  0  0  0  0  0  0  0  0  0
   13.1270    0.9070    6.6950   C 0  0  0  0  0  0  0  0  0  0  0  0
   15.4190    1.5320    7.8130   C 0  0  0  0  0  0  0  0  0  0  0  0
   16.4610    1.4020    8.9240   C 0  0  0  0  0  0  0  0  0  0  0  0
   17.7360    1.8440    8.2750   C 0  0  0  0  0  0  0  0  0  0  0  0
   18.9070    1.8990    9.2240   C 0  0  0  0  0  0  0  0  0  0  0  0
   19.3430    0.6440    9.9740   C 0  0  0  0  0  0  0  0  0  0  0  0
   19.6530    3.2210    9.3220   C 0  0  0  0  0  0  0  0  0  0  0  0
   20.8860    3.2480   10.2150   C 0  0  0  0  0  0  0  0  0  0  0  0
   21.3690    4.6760   10.3880   C 0  0  0  0  0  0  0  0  0  0  0  0
   21.8830    5.2340    9.0600   C 0  0  0  0  0  0  0  0  0  0  0  0
   22.9020    4.4690    8.2430   C 0  0  0  0  0  0  0  0  0  0  0  0
   21.4130    6.5620    8.5200   C 0  0  0  0  0  0  0  0  0  0  0  0
   20.4330    7.4230    9.2810   C 0  0  0  0  0  0  0  0  0  0  0  0
   20.8800    8.8520    9.0650   C 0  0  0  0  0  0  0  0  0  0  0  0
   20.5960    9.3130    7.6260   C 0  0  0  0  0  0  0  0  0  0  0  0
   19.5790   10.4280    7.3550   C 0  0  0  0  0  0  0  0  0  0  0  0
   18.8290   11.0820    8.4950   C 0  0  0  0  0  0  0  0  0  0  0  0
   19.2960   10.8950    5.9330   C 0  0  0  0  0  0  0  0  0  0  0  0
   17.7800   11.0310    5.7510   C 0  0  0  0  0  0  0  0  0  0  0  0
   17.5010   11.6650    4.4110   C 0  0  0  0  0  0  0  0  0  0  0  0
   16.3880   12.6900    4.2230   C 0  0  0  0  0  0  0  0  0  0  0  0
   15.5280   13.1540    5.4110   C 0  0  0  0  0  0  0  0  0  0  0  0
   14.1800   13.7590    4.9880   C 0  0  0  0  0  0  0  0  0  0  0  0
   13.1470   12.6640    4.7800   C 0  0  0  0  0  0  0  0  0  0  0  0
   12.4070   11.6140    3.9670   C 0  0  0  0  0  0  0  0  0  0  0  0
   11.2100   10.9320    4.6050   C 0  0  0  0  0  0  0  0  0  0  0  0
   12.8750   11.1800    2.5730   C 0  0  0  0  0  0  0  0  0  0  0  0
   16.2170   13.2820    2.8260   C 0  0  0  0  0  0  0  0  0  0  0  0
  3  2  1  0  0  0  0
  1  2  1  0  0  0  0
  2  4  2  0  0  0  0
  4  5  1  0  0  0  0
  5  6  1  0  0  0  0
  6  7  1  0  0  0  0
  8  7  1  0  0  0  0
  7  9  2  0  0  0  0
  9 10  1  0  0  0  0
 10 11  1  0  0  0  0
 11 12  1  0  0  0  0
 13 12  1  0  0  0  0
 12 14  2  0  0  0  0
 14 15  1  0  0  0  0
 15 16  1  0  0  0  0
 16 17  1  0  0  0  0
 17 18  2  0  0  0  0
 18 19  1  0  0  0  0
 18 20  1  0  0  0  0
 20 21  1  0  0  0  0
 21 22  1  0  0  0  0
 22 23  2  0  0  0  0
 23 30  1  0  0  0  0
 23 24  1  0  0  0  0
 24 25  1  0  0  0  0
 25 26  1  0  0  0  0
 26 27  2  0  0  0  0
 27 29  1  0  0  0  0
 27 28  1  0  0  0  0
M  END
>  <InstanceId>
4OMK_SQL_A_305

>  <ChemCompId>
SQL

>  <PdbId>
4OMK

>  <ChainId>
A

>  <ResidueNumber>
305

>  <InsertionCode>


>  <Model>
1

>  <AltIds>


>  <MissingHeavyAtoms>
0

>  <ObservedFormula>
C30

>  <Name>
(6E,10E,14E,18E)-2,6,10,15,19,23-hexamethyltetracosa-2,6,10,14,18,22-hexaene

>  <SystematicName>
(6E,10E,14E,18E)-2,6,10,15,19,23-hexamethyltetracosa-2,6,10,14,18,22-hexaene

>  <Synonyms>
squalene

>  <Type>
NON-POLYMER

>  <Formula>
C30 H50

>  <MolecularWeight>
410.718

>  <ModifiedDate>
2013-05-10

>  <Parent>


>  <OneLetterCode>


>  <SubcomponentList>


>  <AmbiguousFlag>
N

>  <InChI>
InChI=1S/C30H50/c1-25(2)15-11-19-29(7)23-13-21-27(5)17-9-10-18-28(6)22-14-24-30(8)20-12-16-26(3)4/h15-18,23-24H,9-14,19-22H2,1-8H3/b27-17+,28-18+,29-23+,30-24+

>  <InChIKey>
YYGNTYWPHWGJRM-AAJYLUCBSA-N

>  <SMILES>
CC(=CCC/C(=C/CC/C(=C/CC/C=C(/CC/C=C(/CCC=C(C)C)\C)\C)/C)/C)C

$$$$
