6FNR_DYT_A_403
  RCSB PDB08022004413D
Coordinates from PDB:6FNR:A:403 Model:1 without hydrogens
 11 11  0  0  0  0            999 V2000
    7.5300   15.7470   13.3260   O 0  0  0  0  0  0  0  0  0  0  0  0
    7.3130   15.9960   14.5350   C 0  0  0  0  0  0  0  0  0  0  0  0
    6.1470   16.2420   14.9330   O 0  0  0  0  0  0  0  0  0  0  0  0
    8.4620   16.0400   15.5190   C 0  0  0  0  0  0  0  0  0  0  0  0
    8.3800   17.5560   16.3820  Cl 0  0  0  0  0  0  0  0  0  0  0  0
    8.3700   14.9220   16.5340   C 0  0  0  0  0  0  0  0  0  0  0  0
    8.2350   13.5630   15.8900   C 0  0  0  0  0  0  0  0  0  0  0  0
    9.0160   13.0470   14.8700   C 0  0  0  0  0  0  0  0  0  0  0  0
    8.5620   11.7720   14.6020   N 0  0  0  0  0  0  0  0  0  0  0  0
    7.5170   11.5000   15.4470   C 0  0  0  0  0  0  0  0  0  0  0  0
    7.3190   12.6090   16.2480   N 0  0  0  0  0  0  0  0  0  0  0  0
  1  2  2  0  0  0  0
  2  3  1  0  0  0  0
  2  4  1  0  0  0  0
  9  8  1  0  0  0  0
  9 10  2  0  0  0  0
  8  7  2  0  0  0  0
 10 11  1  0  0  0  0
  4  5  1  0  0  0  0
  4  6  1  0  0  0  0
  7 11  1  0  0  0  0
  7  6  1  0  0  0  0
M  END
>  <InstanceId>
6FNR_DYT_A_403

>  <ChemCompId>
DYT

>  <PdbId>
6FNR

>  <ChainId>
A

>  <ResidueNumber>
403

>  <InsertionCode>


>  <Model>
1

>  <AltIds>


>  <MissingHeavyAtoms>
0

>  <ObservedFormula>
C6 N2 O2 Cl

>  <Name>
(2~{S})-2-chloranyl-3-(1~{H}-imidazol-5-yl)propanoic acid

>  <SystematicName>
(2~{S})-2-chloranyl-3-(1~{H}-imidazol-5-yl)propanoic acid

>  <Synonyms>


>  <Type>
NON-POLYMER

>  <Formula>
C6 H7 Cl N2 O2

>  <MolecularWeight>
174.585

>  <ModifiedDate>
2018-06-08

>  <Parent>


>  <OneLetterCode>


>  <SubcomponentList>


>  <AmbiguousFlag>
N

>  <InChI>
InChI=1S/C6H7ClN2O2/c7-5(6(10)11)1-4-2-8-3-9-4/h2-3,5H,1H2,(H,8,9)(H,10,11)/t5-/m0/s1

>  <InChIKey>
JZLQYMHAXPPICX-YFKPBYRVSA-N

>  <SMILES>
c1c([nH]cn1)C[C@@H](C(=O)O)Cl

$$$$
