6EQ8_BQZ_D_708
  RCSB PDB08022004333D
Coordinates from PDB:6EQ8:D:708 Model:1 without hydrogens
 23 24  0  0  0  0            999 V2000
  139.5810    7.7310   77.7300   C 0  0  0  0  0  0  0  0  0  0  0  0
  139.2540    7.6420   76.2390   C 0  0  0  0  0  0  0  0  0  0  0  0
  140.3390    8.2210   75.3420   C 0  0  0  0  0  0  0  0  0  0  0  0
  134.8190    6.8420   72.8650   C 0  0  0  0  0  0  0  0  0  0  0  0
  136.2060    5.9420   74.8610   C 0  0  0  0  0  0  0  0  0  0  0  0
  135.3050    4.6610   74.8510   C 0  0  0  0  0  0  0  0  0  0  0  0
  134.7580    4.3810   73.4400   C 0  0  0  0  0  0  0  0  0  0  0  0
  133.9330    5.5720   72.9050   C 0  0  0  0  0  0  0  0  0  0  0  0
  135.4150    7.1630   74.2900   C 0  0  0  0  0  0  0  0  0  0  0  0
  138.3820    7.2120   78.5110   C 0  0  0  0  0  0  0  0  0  0  0  0
  137.8410    5.6360   76.5810   C 0  0  0  0  0  0  0  0  0  0  0  0
  138.0610    5.7440   78.0980   C 0  0  0  0  0  0  0  0  0  0  0  0
  136.5880    6.2280   76.2160   O 0  0  0  0  0  0  0  0  0  0  0  0
  136.9640    5.2310   78.8100   O 0  0  0  0  0  0  0  0  0  0  0  0
  138.7570    7.2460   79.8650   O 0  0  0  0  0  0  0  0  0  0  0  0
  140.6950    6.8880   78.0440   O 0  0  0  0  0  0  0  0  0  0  0  0
  138.9540    6.2670   75.8680   O 0  0  0  0  0  0  0  0  0  0  0  0
  139.9490    7.9480   73.9930   O 0  0  0  0  0  0  0  0  0  0  0  0
  134.2230    4.7850   75.8060   O 0  0  0  0  0  0  0  0  0  0  0  0
  133.9780    3.2070   73.4940   O 0  0  0  0  0  0  0  0  0  0  0  0
  133.4990    5.2640   71.5920   O 0  0  0  0  0  0  0  0  0  0  0  0
  134.0360    7.9320   72.3710   O 0  0  0  0  0  0  0  0  0  0  0  0
  136.2370    8.3170   74.2890   O 0  0  0  0  0  0  0  0  0  0  0  0
 18  3  1  0  0  0  0
  3  2  1  0  0  0  0
 17  2  1  0  0  0  0
 17 11  1  0  0  0  0
  2  1  1  0  0  0  0
 16  1  1  0  0  0  0
 23  9  1  0  0  0  0
  1 10  1  0  0  0  0
  4 22  1  0  0  0  0
  4  9  1  0  0  0  0
  4  8  1  0  0  0  0
 21  8  1  0  0  0  0
 11 13  1  0  0  0  0
 11 12  1  0  0  0  0
  5  9  1  0  0  0  0
  5 13  1  0  0  0  0
  5  6  1  0  0  0  0
  7  8  1  0  0  0  0
  7 20  1  0  0  0  0
  7  6  1  0  0  0  0
  6 19  1  0  0  0  0
 12 10  1  0  0  0  0
 12 14  1  0  0  0  0
 10 15  1  0  0  0  0
M  END
>  <InstanceId>
6EQ8_BQZ_D_708

>  <ChemCompId>
BQZ

>  <PdbId>
6EQ8

>  <ChainId>
D

>  <ResidueNumber>
708

>  <InsertionCode>


>  <Model>
1

>  <AltIds>


>  <MissingHeavyAtoms>
0

>  <ObservedFormula>
C12 O11

>  <Name>
galactinol

>  <SystematicName>
(1~{S},2~{R},4~{S},5~{S})-6-[(2~{R},3~{R},4~{S},5~{R},6~{R})-6-(hydroxymethyl)-3,4,5-tris(oxidanyl)oxan-2-yl]oxycyclohexane-1,2,3,4,5-pentol

>  <Synonyms>


>  <Type>
NON-POLYMER

>  <Formula>
C12 H22 O11

>  <MolecularWeight>
342.296

>  <ModifiedDate>
2018-04-13

>  <Parent>


>  <OneLetterCode>


>  <SubcomponentList>


>  <AmbiguousFlag>
N

>  <InChI>
InChI=1S/C12H22O11/c13-1-2-3(14)4(15)10(21)12(22-2)23-11-8(19)6(17)5(16)7(18)9(11)20/h2-21H,1H2/t2-,3+,4+,5-,6-,7+,8+,9+,10-,11-,12-/m1/s1

>  <InChIKey>
VCWMRQDBPZKXKG-DXNLKLAMSA-N

>  <SMILES>
C([C@@H]1[C@@H]([C@@H]([C@H]([C@H](O1)OC2[C@H]([C@H](C([C@H]([C@@H]2O)O)O)O)O)O)O)O)O

$$$$
