6HH5_A3R_A_402
  RCSB PDB08022004583D
Coordinates from PDB:6HH5:A:402 Model:1 without hydrogens
 34 37  0  0  0  0            999 V2000
  -11.2860   -2.2820   10.3890   C 0  0  0  0  0  0  0  0  0  0  0  0
   -9.8290   -1.8750   10.8630   C 0  0  0  0  0  0  0  0  0  0  0  0
   -9.3200   -0.7320   10.1860   O 0  0  0  0  0  0  0  0  0  0  0  0
   -9.9800   -1.4520   12.3110   C 0  0  0  0  0  0  0  0  0  0  0  0
  -11.4040   -1.2010   12.4080   N 0  0  0  0  0  0  0  0  0  0  0  0
  -11.8160   -1.0170   11.0190   C 0  0  0  0  0  0  0  0  0  0  0  0
  -13.3300   -0.9240   10.9060   C 0  0  0  0  0  0  0  0  0  0  0  0
  -13.6820    0.4280   11.0930   O 0  0  0  0  0  0  0  0  0  0  0  0
  -15.2060    0.6850   11.3560   P 0  0  0  0  0  0  0  0  0  0  0  0
  -15.4260    0.0450   12.6720   O 0  0  0  0  0  0  0  0  0  0  0  0
  -15.9540    0.2980   10.1170   O 0  0  0  0  0  0  0  0  0  0  0  0
  -15.1180    2.3070   11.6190   O 0  0  0  0  0  0  0  0  0  0  0  0
  -15.6470    3.5120   10.7810   P 0  0  0  0  0  0  0  0  0  0  0  0
  -17.1490    3.4490   10.9000   O 0  0  0  0  0  0  0  0  0  0  0  0
  -14.9510    4.6730   11.3120   O 0  0  0  0  0  0  0  0  0  0  0  0
  -15.1790    3.3200    9.2600   O 0  0  0  0  0  0  0  0  0  0  0  0
  -13.7570    3.2120    9.0400   C 0  0  0  0  0  0  0  0  0  0  0  0
  -13.1880    4.3110    8.1330   C 0  0  0  0  0  0  0  0  0  0  0  0
  -13.8110    4.1590    6.8350   O 0  0  0  0  0  0  0  0  0  0  0  0
  -13.5430    5.6960    8.5940   C 0  0  0  0  0  0  0  0  0  0  0  0
  -12.6890    6.2450    9.6720   O 0  0  0  0  0  0  0  0  0  0  0  0
  -13.3930    6.4360    7.2680   C 0  0  0  0  0  0  0  0  0  0  0  0
  -12.0940    6.6970    7.0080   O 0  0  0  0  0  0  0  0  0  0  0  0
  -13.8710    5.4210    6.2160   C 0  0  0  0  0  0  0  0  0  0  0  0
  -15.2900    5.6620    5.9140   N 0  0  0  0  0  0  0  0  0  0  0  0
  -16.3440    4.9210    6.2850   C 0  0  0  0  0  0  0  0  0  0  0  0
  -17.4390    5.5050    5.8030   N 0  0  0  0  0  0  0  0  0  0  0  0
  -17.0830    6.6240    5.1470   C 0  0  0  0  0  0  0  0  0  0  0  0
  -15.7340    6.7090    5.2180   C 0  0  0  0  0  0  0  0  0  0  0  0
  -15.0680    7.7300    4.6430   N 0  0  0  0  0  0  0  0  0  0  0  0
  -15.7910    8.7200    3.9600   C 0  0  0  0  0  0  0  0  0  0  0  0
  -17.1920    8.6040    3.9100   N 0  0  0  0  0  0  0  0  0  0  0  0
  -17.7900    7.5660    4.4930   C 0  0  0  0  0  0  0  0  0  0  0  0
  -19.1250    7.4430    4.4580   N 0  0  0  0  0  0  0  0  0  0  0  0
 32 31  2  0  0  0  0
 32 33  1  0  0  0  0
 31 30  1  0  0  0  0
 34 33  1  0  0  0  0
 33 28  2  0  0  0  0
 30 29  2  0  0  0  0
 28 29  1  0  0  0  0
 28 27  1  0  0  0  0
 29 25  1  0  0  0  0
 27 26  2  0  0  0  0
 25 24  1  0  0  0  0
 25 26  1  0  0  0  0
 23 22  1  0  0  0  0
 24 22  1  0  0  0  0
 24 19  1  0  0  0  0
 22 20  1  0  0  0  0
 19 18  1  0  0  0  0
 18 20  1  0  0  0  0
 18 17  1  0  0  0  0
 20 21  1  0  0  0  0
 17 16  1  0  0  0  0
 16 13  1  0  0  0  0
 11  9  2  0  0  0  0
 13 14  2  0  0  0  0
 13 15  1  0  0  0  0
 13 12  1  0  0  0  0
  5  4  1  0  0  0  0
  5  6  1  0  0  0  0
  7  6  1  0  0  0  0
  7  8  1  0  0  0  0
 12  9  1  0  0  0  0
  9  8  1  0  0  0  0
  9 10  1  0  0  0  0
  4  2  1  0  0  0  0
  6  1  1  0  0  0  0
  1  2  1  0  0  0  0
  2  3  1  0  0  0  0
M  END
>  <InstanceId>
6HH5_A3R_A_402

>  <ChemCompId>
A3R

>  <PdbId>
6HH5

>  <ChainId>
A

>  <ResidueNumber>
402

>  <InsertionCode>


>  <Model>
1

>  <AltIds>


>  <MissingHeavyAtoms>
0

>  <ObservedFormula>
C15 N6 O11 P2

>  <Name>
Adenosine Diphosphate (Hydroxymethyl)pyrrolidine monoalcohol

>  <SystematicName>
[[(2~{R},3~{S},4~{R},5~{R})-5-(6-aminopurin-9-yl)-3,4-bis(oxidanyl)oxolan-2-yl]methoxy-oxidanyl-phosphoryl] [(2~{S},4~{R})-4-oxidanylpyrrolidin-2-yl]methyl hydrogen phosphate

>  <Synonyms>


>  <Type>
NON-POLYMER

>  <Formula>
C15 H24 N6 O11 P2

>  <MolecularWeight>
526.332

>  <ModifiedDate>
2018-11-23

>  <Parent>


>  <OneLetterCode>


>  <SubcomponentList>


>  <AmbiguousFlag>
N

>  <InChI>
InChI=1S/C15H24N6O11P2/c16-13-10-14(19-5-18-13)21(6-20-10)15-12(24)11(23)9(31-15)4-30-34(27,28)32-33(25,26)29-3-7-1-8(22)2-17-7/h5-9,11-12,15,17,22-24H,1-4H2,(H,25,26)(H,27,28)(H2,16,18,19)/t7-,8+,9+,11+,12+,15+/m0/s1

>  <InChIKey>
PHEYQOBMMIEFLO-IBCGMDAMSA-N

>  <SMILES>
c1nc(c2c(n1)n(cn2)[C@H]3[C@@H]([C@@H]([C@H](O3)COP(=O)(O)OP(=O)(O)OC[C@@H]4C[C@H](CN4)O)O)O)N

$$$$
