2XC0_8NC_A_1246
  RCSB PDB08012018143D
Coordinates from PDB:2XC0:A:1246 Model:1 without hydrogens
 38 41  0  0  0  0            999 V2000
    8.2440   70.3370    2.7020   S 0  0  0  0  0  0  0  0  0  0  0  0
    8.9930   66.4940    2.6590   C 0  0  0  0  0  0  0  0  0  0  0  0
    9.7050   66.9950    3.9520   C 0  0  0  0  0  0  0  0  0  0  0  0
    8.9480   68.8530    2.6600   N 0  0  0  0  0  0  0  0  0  0  0  0
    8.1710   65.2490    2.9200   C 0  0  0  0  0  0  0  0  0  0  0  0
    6.7750   58.8400    3.0600   N 0  0  0  0  0  0  0  0  0  0  0  0
   11.0630   66.3590    4.0220   C 0  0  0  0  0  0  0  0  0  0  0  0
    8.1200   67.7040    2.2680   C 0  0  0  0  0  0  0  0  0  0  0  0
    9.8060   68.5100    3.7910   C 0  0  0  0  0  0  0  0  0  0  0  0
    5.8150   58.4860    2.1870   C 0  0  0  0  0  0  0  0  0  0  0  0
    7.2490   60.1590    3.0490   C 0  0  0  0  0  0  0  0  0  0  0  0
    8.7610   64.0620    2.7470   N 0  0  0  0  0  0  0  0  0  0  0  0
    8.0550   60.5510    2.0030   C 0  0  0  0  0  0  0  0  0  0  0  0
   11.6470   66.1740    5.2030   N 0  0  0  0  0  0  0  0  0  0  0  0
    8.1880   62.7810    2.9250   C 0  0  0  0  0  0  0  0  0  0  0  0
    8.5120   61.8550    1.9570   C 0  0  0  0  0  0  0  0  0  0  0  0
   14.7540   64.3340    4.4280   C 0  0  0  0  0  0  0  0  0  0  0  0
   13.5710   65.0330    4.2120   C 0  0  0  0  0  0  0  0  0  0  0  0
    7.6500   70.4110    1.4110   O 0  0  0  0  0  0  0  0  0  0  0  0
    9.3240   71.1870    3.0760   O 0  0  0  0  0  0  0  0  0  0  0  0
    7.2970   57.9240    3.9290   C 0  0  0  0  0  0  0  0  0  0  0  0
   12.8680   65.5150    5.3280   C 0  0  0  0  0  0  0  0  0  0  0  0
    7.0150   65.3130    3.2990   O 0  0  0  0  0  0  0  0  0  0  0  0
   11.6300   66.0170    3.0120   O 0  0  0  0  0  0  0  0  0  0  0  0
    5.3130   57.1700    2.1880   C 0  0  0  0  0  0  0  0  0  0  0  0
   15.1850   64.0920    5.7280   C 0  0  0  0  0  0  0  0  0  0  0  0
    5.3530   59.3220    1.4200   O 0  0  0  0  0  0  0  0  0  0  0  0
    6.8980   61.0850    4.0300   C 0  0  0  0  0  0  0  0  0  0  0  0
    7.3880   62.4000    3.9920   C 0  0  0  0  0  0  0  0  0  0  0  0
    6.8180   56.6670    3.9690   C 0  0  0  0  0  0  0  0  0  0  0  0
    5.7990   56.2750    3.0870   C 0  0  0  0  0  0  0  0  0  0  0  0
   14.4680   64.5530    6.8210   C 0  0  0  0  0  0  0  0  0  0  0  0
    7.0290   70.1850    4.0370   C 0  0  0  0  0  0  0  0  0  0  0  0
    9.3150   62.2610    0.9500   F 0  0  0  0  0  0  0  0  0  0  0  0
   15.4930   63.8570    3.3840   F 0  0  0  0  0  0  0  0  0  0  0  0
   13.2960   65.2550    6.6140   C 0  0  0  0  0  0  0  0  0  0  0  0
   16.3370   63.3930    5.9560   O 0  0  0  0  0  0  0  0  0  0  0  0
   16.4570   62.7470    7.2150   C 0  0  0  0  0  0  0  0  0  0  0  0
  1  4  1  0  0  0  0
  1 19  2  0  0  0  0
  1 20  2  0  0  0  0
  1 33  1  0  0  0  0
  2  3  1  0  0  0  0
  2  5  1  0  0  0  0
  2  8  1  0  0  0  0
  3  7  1  0  0  0  0
  3  9  1  0  0  0  0
  4  8  1  0  0  0  0
  4  9  1  0  0  0  0
  5 12  1  0  0  0  0
  5 23  2  0  0  0  0
  6 10  1  0  0  0  0
  6 11  1  0  0  0  0
  6 21  1  0  0  0  0
  7 14  1  0  0  0  0
  7 24  2  0  0  0  0
 10 25  1  0  0  0  0
 10 27  2  0  0  0  0
 11 13  1  0  0  0  0
 11 28  2  0  0  0  0
 12 15  1  0  0  0  0
 13 16  2  0  0  0  0
 14 22  1  0  0  0  0
 15 16  1  0  0  0  0
 15 29  2  0  0  0  0
 16 34  1  0  0  0  0
 17 18  2  0  0  0  0
 17 26  1  0  0  0  0
 17 35  1  0  0  0  0
 18 22  1  0  0  0  0
 21 30  2  0  0  0  0
 22 36  2  0  0  0  0
 25 31  2  0  0  0  0
 26 32  2  0  0  0  0
 26 37  1  0  0  0  0
 28 29  1  0  0  0  0
 30 31  1  0  0  0  0
 32 36  1  0  0  0  0
 37 38  1  0  0  0  0
M  END
>  <InstanceId>
2XC0_8NC_A_1246

>  <ChemCompId>
8NC

>  <PdbId>
2XC0

>  <ChainId>
A

>  <ResidueNumber>
1246

>  <InsertionCode>


>  <Model>
1

>  <AltIds>


>  <MissingHeavyAtoms>
0

>  <ObservedFormula>
C25 N4 O6 S F2

>  <Name>
(3R,4R)-1-METHANESULFONYL-PYRROLIDINE-3,4--DICARBOXYLIC ACID 3-[(3-FLUORO-4-METHOXY-PHENYL)-AMIDE] 4-{[2-FLUORO-4-(2-OXO-2H-PYRIDIN-1-YL)-PHENYL]-AMIDE}

>  <SystematicName>
(1S,3R,4R)-N-(3-fluoro-4-methoxy-phenyl)-N'-[2-fluoro-4-(2-oxopyridin-1-yl)phenyl]-1-methylsulfonyl-pyrrolidine-3,4-dicarboxamide

>  <Synonyms>


>  <Type>
non-polymer

>  <Formula>
C25 H24 F2 N4 O6 S

>  <MolecularWeight>
546.543

>  <ModifiedDate>
2011-06-04

>  <Parent>


>  <OneLetterCode>


>  <SubcomponentList>


>  <AmbiguousFlag>
N

>  <InChI>
InChI=1S/C25H24F2N4O6S/c1-37-22-9-6-15(11-20(22)27)28-24(33)17-13-30(38(2,35)36)14-18(17)25(34)29-21-8-7-16(12-19(21)26)31-10-4-3-5-23(31)32/h3-12,17-18H,13-14H2,1-2H3,(H,28,33)(H,29,34)/t17-,18-/m0/s1

>  <InChIKey>
JORQWQCWRYRBEL-ROUUACIJSA-N

>  <SMILES>
COc1ccc(cc1F)NC(=O)[C@H]2C[N@@](C[C@@H]2C(=O)Nc3ccc(cc3F)N4C=CC=CC4=O)S(=O)(=O)C

$$$$
