5L9O_GOP_A_301
  RCSB PDB08022002103D
Coordinates from PDB:5L9O:A:301 Model:1 without hydrogens
 21 20  0  0  0  0            999 V2000
   42.3890  -65.7650   35.9170   O 0  0  0  0  0  0  0  0  0  0  0  0
   43.2290  -64.8220   35.2360   C 0  0  0  0  0  0  0  0  0  0  0  0
   42.5370  -63.6400   34.5180   C 0  0  0  0  0  0  0  0  0  0  0  0
   43.5210  -63.0340   33.6590   O 0  0  0  0  0  0  0  0  0  0  0  0
   41.1690  -63.8800   33.8080   C 0  0  0  0  0  0  0  0  0  0  0  0
   40.5720  -62.6040   33.5850   O 0  0  0  0  0  0  0  0  0  0  0  0
   41.0150  -64.7750   32.5520   C 0  0  0  0  0  0  0  0  0  0  0  0
   39.6610  -64.7540   32.0260   O 0  0  0  0  0  0  0  0  0  0  0  0
   41.3740  -66.2380   32.8810   C 0  0  0  0  0  0  0  0  0  0  0  0
   40.6230  -66.7490   33.9990   O 0  0  0  0  0  0  0  0  0  0  0  0
   41.2670  -67.1720   31.6800   C 0  0  0  0  0  0  0  0  0  0  0  0
   42.0070  -68.4090   31.9590   N 0  0  0  0  0  0  0  0  0  0  0  0
   41.9340  -69.3660   30.8490   C 0  0  0  0  0  0  0  0  0  0  0  0
   40.6080  -70.1160   30.9280   C 0  0  0  0  0  0  0  0  0  0  0  0
   40.4150  -70.8910   29.9740   O 0  0  0  0  0  0  0  0  0  0  0  0
   43.1180  -70.3350   30.8650   C 0  0  0  0  0  0  0  0  0  0  0  0
   43.1650  -71.1710   32.1460   C 0  0  0  0  0  0  0  0  0  0  0  0
   44.4400  -72.0250   32.2500   C 0  0  0  0  0  0  0  0  0  0  0  0
   44.7720  -72.4280   33.3680   O 0  0  0  0  0  0  0  0  0  0  0  0
   45.1260  -72.3200   31.1320   N 0  0  0  0  0  0  0  0  0  0  0  0
   39.8600  -69.9350   31.9320   O 0  0  0  0  0  0  0  0  0  0  0  0
 15 14  2  0  0  0  0
 16 13  1  0  0  0  0
 16 17  1  0  0  0  0
 13 14  1  0  0  0  0
 13 12  1  0  0  0  0
 14 21  1  0  0  0  0
 20 18  1  0  0  0  0
 11 12  1  0  0  0  0
 11  9  1  0  0  0  0
 17 18  1  0  0  0  0
 18 19  2  0  0  0  0
  8  7  1  0  0  0  0
  7  9  1  0  0  0  0
  7  5  1  0  0  0  0
  9 10  1  0  0  0  0
  6  5  1  0  0  0  0
  5  3  1  0  0  0  0
  4  3  1  0  0  0  0
  3  2  1  0  0  0  0
  2  1  1  0  0  0  0
M  END
>  <InstanceId>
5L9O_GOP_A_301

>  <ChemCompId>
GOP

>  <PdbId>
5L9O

>  <ChainId>
A

>  <ResidueNumber>
301

>  <InsertionCode>


>  <Model>
1

>  <AltIds>


>  <MissingHeavyAtoms>
0

>  <ObservedFormula>
C11 N2 O8

>  <Name>
Glucopine

>  <SystematicName>
(2~{S})-5-azanyl-5-oxidanylidene-2-[[(2~{S},3~{R},4~{R},5~{R})-2,3,4,5,6-pentakis(oxidanyl)hexyl]amino]pentanoic acid

>  <Synonyms>


>  <Type>
NON-POLYMER

>  <Formula>
C11 H22 N2 O8

>  <MolecularWeight>
310.301

>  <ModifiedDate>
2016-09-16

>  <Parent>


>  <OneLetterCode>


>  <SubcomponentList>


>  <AmbiguousFlag>
N

>  <InChI>
InChI=1S/C11H22N2O8/c12-8(17)2-1-5(11(20)21)13-3-6(15)9(18)10(19)7(16)4-14/h5-7,9-10,13-16,18-19H,1-4H2,(H2,12,17)(H,20,21)/t5-,6-,7+,9+,10+/m0/s1

>  <InChIKey>
VPRLICVDSGMIKO-ZSAGQLGGSA-N

>  <SMILES>
C(CC(=O)N)[C@@H](C(=O)O)NC[C@@H]([C@H]([C@@H]([C@@H](CO)O)O)O)O

$$$$
