6AYI_C3G_A_201
  RCSB PDB08022003593D
Coordinates from PDB:6AYI:A:201 Model:1 without hydrogens
 22 23  0  0  0  0            999 V2000
   53.4771   45.0194  164.8599   C 0  0  0  0  0  0  0  0  0  0  0  0
   55.5042   40.5747  166.4010   C 0  0  0  0  0  0  0  0  0  0  0  0
   55.4907   38.2677  165.7195   C 0  0  0  0  0  0  0  0  0  0  0  0
   51.1492   44.0190  167.7236   C 0  0  0  0  0  0  0  0  0  0  0  0
   52.0605   43.0497  168.3440   C 0  0  0  0  0  0  0  0  0  0  0  0
   52.8232   42.2071  167.2926   C 0  0  0  0  0  0  0  0  0  0  0  0
   52.6292   44.0795  165.6987   C 0  0  0  0  0  0  0  0  0  0  0  0
   51.8683   44.9020  166.7691   C 0  0  0  0  0  0  0  0  0  0  0  0
   54.3949   40.3374  167.2638   C 0  0  0  0  0  0  0  0  0  0  0  0
   56.0345   39.5265  165.6359   C 0  0  0  0  0  0  0  0  0  0  0  0
   54.3745   38.0212  166.5913   C 0  0  0  0  0  0  0  0  0  0  0  0
   53.8448   39.0577  167.3511   C 0  0  0  0  0  0  0  0  0  0  0  0
   56.0384   37.2088  164.9377   N 0  3  0  0  0  0  0  0  0  0  0  0
   50.5297   44.8416  168.7767   O 0  0  0  0  0  0  0  0  0  0  0  0
   51.2973   42.1501  169.2122   O 0  0  0  0  0  0  0  0  0  0  0  0
   53.5055   43.0560  166.2871   O 0  0  0  0  0  0  0  0  0  0  0  0
   50.9410   45.7288  166.1359   O 0  0  0  0  0  0  0  0  0  0  0  0
   52.9922   46.0774  164.4276   O 0  0  0  0  0  0  0  0  0  0  0  0
   54.7319   44.7029  164.5863   O 0  0  0  0  0  0  0  0  0  0  0  0
   53.8655   41.3888  168.0442   O 0  0  0  0  0  0  0  0  0  0  0  0
   57.0792   37.4921  163.9557   O 0  0  0  0  0  0  0  0  0  0  0  0
   55.6605   36.1282  165.0836   O 0  5  0  0  0  0  0  0  0  0  0  0
 14  4  1  0  0  0  0
 15  5  1  0  0  0  0
  5  4  1  0  0  0  0
  5  6  1  0  0  0  0
  4  8  1  0  0  0  0
  8 17  1  0  0  0  0
  8  7  1  0  0  0  0
 20  6  1  0  0  0  0
 20  9  1  0  0  0  0
  6 16  1  0  0  0  0
 16  7  1  0  0  0  0
  9  2  2  0  0  0  0
  9 12  1  0  0  0  0
  7  1  1  0  0  0  0
  2 10  1  0  0  0  0
  1 18  2  0  0  0  0
  1 19  1  0  0  0  0
 12 11  2  0  0  0  0
 10  3  2  0  0  0  0
 11  3  1  0  0  0  0
  3 13  1  0  0  0  0
 13 21  2  0  0  0  0
 13 22  1  0  0  0  0
M  CHG  2  13   1  22  -1
M  END
>  <InstanceId>
6AYI_C3G_A_201

>  <ChemCompId>
C3G

>  <PdbId>
6AYI

>  <ChainId>
A

>  <ResidueNumber>
201

>  <InsertionCode>


>  <Model>
1

>  <AltIds>


>  <MissingHeavyAtoms>
0

>  <ObservedFormula>
C12 N O9

>  <Name>
4-nitrophenyl beta-D-glucopyranosiduronic acid

>  <SystematicName>
(2~{S},3~{S},4~{S},5~{R},6~{S})-6-(4-nitrophenoxy)-3,4,5-tris(oxidanyl)oxane-2-carboxylic acid

>  <Synonyms>
4-nitrophenyl beta-D-glucosiduronic acid; 4-nitrophenyl D-glucosiduronic acid; 4-nitrophenyl glucosiduronic acid

>  <Type>
D-saccharide

>  <Formula>
C12 H13 N O9

>  <MolecularWeight>
315.233

>  <ModifiedDate>
2020-07-17

>  <Parent>
BDP

>  <OneLetterCode>


>  <SubcomponentList>


>  <AmbiguousFlag>
N

>  <InChI>
InChI=1S/C12H13NO9/c14-7-8(15)10(11(17)18)22-12(9(7)16)21-6-3-1-5(2-4-6)13(19)20/h1-4,7-10,12,14-16H,(H,17,18)/t7-,8-,9+,10-,12+/m0/s1

>  <InChIKey>
QSUILVWOWLUOEU-GOVZDWNOSA-N

>  <SMILES>
c1cc(ccc1[N+](=O)[O-])O[C@H]2[C@@H]([C@H]([C@@H]([C@H](O2)C(=O)O)O)O)O

$$$$
