2VHJ_ADP_A_1301
  RCSB PDB08012018023D
Coordinates from PDB:2VHJ:A:1301 Model:1 without hydrogens
 27 29  0  0  0  0            999 V2000
   82.3950   49.4680    4.9070   P 0  0  0  0  0  0  0  0  0  0  0  0
   81.8260   48.0800    4.7170   O 0  0  0  0  0  0  0  0  0  0  0  0
   83.4800   49.5640    5.9450   O 0  0  0  0  0  0  0  0  0  0  0  0
   81.3470   50.5540    5.0370   O 0  0  0  0  0  0  0  0  0  0  0  0
   84.6730   49.1350    3.3000   P 0  0  0  0  0  0  0  0  0  0  0  0
   85.1380   49.4540    1.8960   O 0  0  0  0  0  0  0  0  0  0  0  0
   84.5900   47.6880    3.7090   O 0  0  0  0  0  0  0  0  0  0  0  0
   83.2090   49.7790    3.5450   O 0  0  0  0  0  0  0  0  0  0  0  0
   85.6080   49.9260    4.3450   O 0  0  0  0  0  0  0  0  0  0  0  0
   86.7460   50.6650    3.9040   C 0  0  0  0  0  0  0  0  0  0  0  0
   86.2890   52.0300    3.4160   C 0  0  0  0  0  0  0  0  0  0  0  0
   87.0630   53.0710    4.0200   O 0  0  0  0  0  0  0  0  0  0  0  0
   86.3770   52.2070    1.9050   C 0  0  0  0  0  0  0  0  0  0  0  0
   85.0590   52.3500    1.3820   O 0  0  0  0  0  0  0  0  0  0  0  0
   87.2040   53.4550    1.6550   C 0  0  0  0  0  0  0  0  0  0  0  0
   86.5040   54.4360    0.8700   O 0  0  0  0  0  0  0  0  0  0  0  0
   87.5480   53.9950    3.0400   C 0  0  0  0  0  0  0  0  0  0  0  0
   89.0110   54.1150    3.2030   N 0  0  0  0  0  0  0  0  0  0  0  0
   89.8700   53.0820    3.1570   C 0  0  0  0  0  0  0  0  0  0  0  0
   91.1410   53.5190    3.3440   N 0  0  0  0  0  0  0  0  0  0  0  0
   91.1010   54.8500    3.5240   C 0  0  0  0  0  0  0  0  0  0  0  0
   92.0930   55.9190    3.7740   C 0  0  0  0  0  0  0  0  0  0  0  0
   93.4080   55.6140    3.8690   N 0  0  0  0  0  0  0  0  0  0  0  0
   91.6380   57.1900    3.9000   N 0  0  0  0  0  0  0  0  0  0  0  0
   90.3230   57.4910    3.8050   C 0  0  0  0  0  0  0  0  0  0  0  0
   89.3690   56.5600    3.5780   N 0  0  0  0  0  0  0  0  0  0  0  0
   89.6890   55.2460    3.4300   C 0  0  0  0  0  0  0  0  0  0  0  0
  1  2  2  0  0  0  0
  1  3  1  0  0  0  0
  1  4  1  0  0  0  0
  1  8  1  0  0  0  0
  5  6  2  0  0  0  0
  5  7  1  0  0  0  0
  5  8  1  0  0  0  0
  5  9  1  0  0  0  0
  9 10  1  0  0  0  0
 10 11  1  0  0  0  0
 11 12  1  0  0  0  0
 11 13  1  0  0  0  0
 12 17  1  0  0  0  0
 13 14  1  0  0  0  0
 13 15  1  0  0  0  0
 15 16  1  0  0  0  0
 15 17  1  0  0  0  0
 17 18  1  0  0  0  0
 18 19  1  0  0  0  0
 18 27  1  0  0  0  0
 19 20  2  0  0  0  0
 20 21  1  0  0  0  0
 21 22  1  0  0  0  0
 21 27  2  0  0  0  0
 22 23  1  0  0  0  0
 22 24  2  0  0  0  0
 24 25  1  0  0  0  0
 25 26  2  0  0  0  0
 26 27  1  0  0  0  0
M  END
>  <InstanceId>
2VHJ_ADP_A_1301

>  <ChemCompId>
ADP

>  <PdbId>
2VHJ

>  <ChainId>
A

>  <ResidueNumber>
1301

>  <InsertionCode>


>  <Model>
1

>  <AltIds>


>  <MissingHeavyAtoms>
0

>  <ObservedFormula>
C10 N5 O10 P2

>  <Name>
ADENOSINE-5'-DIPHOSPHATE

>  <SystematicName>
[(2R,3S,4R,5R)-5-(6-aminopurin-9-yl)-3,4-dihydroxy-oxolan-2-yl]methyl phosphono hydrogen phosphate

>  <Synonyms>


>  <Type>
NON-POLYMER

>  <Formula>
C10 H15 N5 O10 P2

>  <MolecularWeight>
427.201

>  <ModifiedDate>
2011-06-04

>  <Parent>
A

>  <OneLetterCode>


>  <SubcomponentList>


>  <AmbiguousFlag>
N

>  <InChI>
InChI=1S/C10H15N5O10P2/c11-8-5-9(13-2-12-8)15(3-14-5)10-7(17)6(16)4(24-10)1-23-27(21,22)25-26(18,19)20/h2-4,6-7,10,16-17H,1H2,(H,21,22)(H2,11,12,13)(H2,18,19,20)/t4-,6-,7-,10-/m1/s1

>  <InChIKey>
XTWYTFMLZFPYCI-KQYNXXCUSA-N

>  <SMILES>
c1nc(c2c(n1)n(cn2)[C@H]3[C@@H]([C@@H]([C@H](O3)CO[P@](=O)(O)OP(=O)(O)O)O)O)N

$$$$
