3EEB_IHP_A_210
  RCSB PDB08012018553D
Coordinates from PDB:3EEB:A:210 Model:1 without hydrogens
 36 36  0  0  0  0            999 V2000
  -49.0310   -2.3850    4.0380   C 0  0  0  0  0  0  0  0  0  0  0  0
  -47.7500   -2.4200    4.8560   C 0  0  0  0  0  0  0  0  0  0  0  0
  -46.9100   -3.6170    4.4390   C 0  0  0  0  0  0  0  0  0  0  0  0
  -46.5930   -3.5900    2.9330   C 0  0  0  0  0  0  0  0  0  0  0  0
  -47.9150   -3.5640    2.1590   C 0  0  0  0  0  0  0  0  0  0  0  0
  -48.7090   -2.3200    2.5500   C 0  0  0  0  0  0  0  0  0  0  0  0
  -49.7780   -1.2370    4.3950   O 0  0  0  0  0  0  0  0  0  0  0  0
  -51.0690   -1.3070    5.3700   P 0  0  0  0  0  0  0  0  0  0  0  0
  -51.6490    0.0700    5.1620   O 0  0  0  0  0  0  0  0  0  0  0  0
  -50.4940   -1.5660    6.7270   O 0  0  0  0  0  0  0  0  0  0  0  0
  -51.9240   -2.4330    4.8630   O 0  0  0  0  0  0  0  0  0  0  0  0
  -46.9970   -1.2400    4.6200   O 0  0  0  0  0  0  0  0  0  0  0  0
  -46.7620   -0.1240    5.7610   P 0  0  0  0  0  0  0  0  0  0  0  0
  -46.5650    1.1140    4.9410   O 0  0  0  0  0  0  0  0  0  0  0  0
  -48.0490   -0.1500    6.5440   O 0  0  0  0  0  0  0  0  0  0  0  0
  -45.5840   -0.5790    6.5810   O 0  0  0  0  0  0  0  0  0  0  0  0
  -45.7340   -3.6460    5.2340   O 0  0  0  0  0  0  0  0  0  0  0  0
  -45.3100   -4.9800    6.0210   P 0  0  0  0  0  0  0  0  0  0  0  0
  -43.9010   -5.2540    5.5400   O 0  0  0  0  0  0  0  0  0  0  0  0
  -46.3530   -5.9890    5.5820   O 0  0  0  0  0  0  0  0  0  0  0  0
  -45.3300   -4.5880    7.4760   O 0  0  0  0  0  0  0  0  0  0  0  0
  -45.8110   -4.7400    2.6150   O 0  0  0  0  0  0  0  0  0  0  0  0
  -44.2810   -4.6570    2.1060   P 0  0  0  0  0  0  0  0  0  0  0  0
  -43.4930   -4.2030    3.3060   O 0  0  0  0  0  0  0  0  0  0  0  0
  -43.9550   -6.0630    1.6450   O 0  0  0  0  0  0  0  0  0  0  0  0
  -44.3270   -3.6960    0.9250   O 0  0  0  0  0  0  0  0  0  0  0  0
  -47.7300   -3.5570    0.7450   O 0  0  0  0  0  0  0  0  0  0  0  0
  -48.4700   -4.5970   -0.2310   P 0  0  0  0  0  0  0  0  0  0  0  0
  -48.9330   -5.6980    0.6850   O 0  0  0  0  0  0  0  0  0  0  0  0
  -49.6010   -3.8830   -0.9170   O 0  0  0  0  0  0  0  0  0  0  0  0
  -47.3370   -5.0090   -1.1480   O 0  0  0  0  0  0  0  0  0  0  0  0
  -49.9200   -2.2030    1.7980   O 0  0  0  0  0  0  0  0  0  0  0  0
  -50.2140   -0.9490    0.8190   P 0  0  0  0  0  0  0  0  0  0  0  0
  -49.7230   -1.3300   -0.5520   O 0  0  0  0  0  0  0  0  0  0  0  0
  -51.7220   -0.8140    0.8790   O 0  0  0  0  0  0  0  0  0  0  0  0
  -49.4430    0.2120    1.3920   O 0  0  0  0  0  0  0  0  0  0  0  0
  1  2  1  0  0  0  0
  1  6  1  0  0  0  0
  1  7  1  0  0  0  0
  2  3  1  0  0  0  0
  2 12  1  0  0  0  0
  3  4  1  0  0  0  0
  3 17  1  0  0  0  0
  4  5  1  0  0  0  0
  4 22  1  0  0  0  0
  5  6  1  0  0  0  0
  5 27  1  0  0  0  0
  6 32  1  0  0  0  0
  7  8  1  0  0  0  0
  8  9  2  0  0  0  0
  8 10  1  0  0  0  0
  8 11  1  0  0  0  0
 12 13  1  0  0  0  0
 13 14  2  0  0  0  0
 13 15  1  0  0  0  0
 13 16  1  0  0  0  0
 17 18  1  0  0  0  0
 18 19  2  0  0  0  0
 18 20  1  0  0  0  0
 18 21  1  0  0  0  0
 22 23  1  0  0  0  0
 23 24  2  0  0  0  0
 23 25  1  0  0  0  0
 23 26  1  0  0  0  0
 27 28  1  0  0  0  0
 28 29  2  0  0  0  0
 28 30  1  0  0  0  0
 28 31  1  0  0  0  0
 32 33  1  0  0  0  0
 33 34  2  0  0  0  0
 33 35  1  0  0  0  0
 33 36  1  0  0  0  0
M  END
>  <InstanceId>
3EEB_IHP_A_210

>  <ChemCompId>
IHP

>  <PdbId>
3EEB

>  <ChainId>
A

>  <ResidueNumber>
210

>  <InsertionCode>


>  <Model>
1

>  <AltIds>


>  <MissingHeavyAtoms>
0

>  <ObservedFormula>
C6 O24 P6

>  <Name>
INOSITOL HEXAKISPHOSPHATE

>  <SystematicName>
(2,3,4,5,6-pentaphosphonooxycyclohexyl) dihydrogen phosphate

>  <Synonyms>


>  <Type>
NON-POLYMER

>  <Formula>
C6 H18 O24 P6

>  <MolecularWeight>
660.035

>  <ModifiedDate>
2015-07-27

>  <Parent>


>  <OneLetterCode>


>  <SubcomponentList>


>  <AmbiguousFlag>
N

>  <InChI>
InChI=1S/C6H18O24P6/c7-31(8,9)25-1-2(26-32(10,11)12)4(28-34(16,17)18)6(30-36(22,23)24)5(29-35(19,20)21)3(1)27-33(13,14)15/h1-6H,(H2,7,8,9)(H2,10,11,12)(H2,13,14,15)(H2,16,17,18)(H2,19,20,21)(H2,22,23,24)/t1-,2-,3-,4+,5-,6-

>  <InChIKey>
IMQLKJBTEOYOSI-GPIVLXJGSA-N

>  <SMILES>
C1(C(C(C(C(C1OP(=O)(O)O)OP(=O)(O)O)OP(=O)(O)O)OP(=O)(O)O)OP(=O)(O)O)OP(=O)(O)O

$$$$
