4A4Q_UX9_A_1100
  RCSB PDB08012021043D
Coordinates from PDB:4A4Q:A:1100 Model:1 without hydrogens
 53 58  0  0  0  0            999 V2000
   10.6130   23.5350    5.3730   C 0  0  0  0  0  0  0  0  0  0  0  0
   10.0230   22.4790    5.6440   O 0  0  0  0  0  0  0  0  0  0  0  0
   11.6470   23.6270    4.2650   C 0  0  0  0  0  0  0  0  0  0  0  0
   11.8940   25.1580    4.0750   C 0  0  0  0  0  0  0  0  0  0  0  0
   11.3360   25.7710    5.3690   C 0  0  0  0  0  0  0  0  0  0  0  0
   10.4660   24.7330    5.9620   N 0  0  0  0  0  0  0  0  0  0  0  0
    9.4650   24.9270    7.0840   C 0  0  0  0  0  0  0  0  0  0  0  0
    9.7440   25.8940    8.1950   C 0  0  0  0  0  0  0  0  0  0  0  0
    8.5630   26.5730    8.5690   C 0  0  0  0  0  0  0  0  0  0  0  0
    7.3600   26.1420    7.7870   C 0  0  0  0  0  0  0  0  0  0  0  0
    8.0410   25.4660    6.5870   C 0  0  0  0  0  0  0  0  0  0  0  0
    8.2090   26.4410    5.5250   O 0  0  0  0  0  0  0  0  0  0  0  0
    8.5920   27.6300    9.6860   C 0  0  0  0  0  0  0  0  0  0  0  0
    9.8210   27.8870   10.3050   C 0  0  0  0  0  0  0  0  0  0  0  0
   11.0810   27.1060    9.8480   C 0  0  0  0  0  0  0  0  0  0  0  0
   10.9910   26.1510    8.8210   C 0  0  0  0  0  0  0  0  0  0  0  0
   13.2670   25.5900    3.9230   O 0  0  0  0  0  0  0  0  0  0  0  0
   12.9650   22.8140    4.5720   C 0  0  0  0  0  0  0  0  0  0  0  0
   13.8700   23.2600    5.7870   C 0  0  0  0  0  0  0  0  0  0  0  0
   10.9420   23.0770    2.8870   C 0  0  0  0  0  0  0  0  0  0  0  0
    9.4790   23.6580    2.5600   C 0  0  0  0  0  0  0  0  0  0  0  0
    8.2530   22.9760    3.0370   C 0  0  0  0  0  0  0  0  0  0  0  0
    6.9260   23.5110    2.7490   C 0  0  0  0  0  0  0  0  0  0  0  0
    6.7910   24.7480    1.9740   C 0  0  0  0  0  0  0  0  0  0  0  0
    7.9830   25.4380    1.4920   C 0  0  0  0  0  0  0  0  0  0  0  0
    9.3050   24.9020    1.7810   C 0  0  0  0  0  0  0  0  0  0  0  0
   16.8980   17.9070   10.9100   C 0  0  0  0  0  0  0  0  0  0  0  0
   16.5120   19.1460   10.0870   C 0  0  0  0  0  0  0  0  0  0  0  0
   17.5480   19.9840    9.4320   C 0  0  0  0  0  0  0  0  0  0  0  0
   17.1670   21.1660    8.6600   C 0  0  0  0  0  0  0  0  0  0  0  0
   15.7500   21.5330    8.5280   C 0  0  0  0  0  0  0  0  0  0  0  0
   14.7240   20.7160    9.1630   C 0  0  0  0  0  0  0  0  0  0  0  0
   15.0960   19.5380    9.9330   C 0  0  0  0  0  0  0  0  0  0  0  0
   15.3170   22.7640    7.7220   C 0  0  0  0  0  0  0  0  0  0  0  0
   14.5870   22.2120    6.5130   N 0  0  0  0  0  0  0  0  0  0  0  0
   15.4550   21.5010    5.6730   N 0  0  0  0  0  0  0  0  0  0  0  0
   15.1450   20.1790    5.3290   C 0  0  0  0  0  0  0  0  0  0  0  0
   16.0940   19.3690    4.4250   C 0  0  0  0  0  0  0  0  0  0  0  0
   16.8530   18.5790    5.4470   N 0  0  0  0  0  0  0  0  0  0  0  0
   18.2220   18.6670    5.6770   C 0  0  0  0  0  0  0  0  0  0  0  0
   18.5780   17.8010    6.7020   O 0  0  0  0  0  0  0  0  0  0  0  0
   19.9790   17.7370    7.1100   C 0  0  0  0  0  0  0  0  0  0  0  0
   19.0170   19.4190    5.0520   O 0  0  0  0  0  0  0  0  0  0  0  0
   15.4270   18.3950    3.3110   C 0  0  0  0  0  0  0  0  0  0  0  0
   14.4980   17.2610    3.8660   C 0  0  0  0  0  0  0  0  0  0  0  0
   14.6110   19.2500    2.2810   C 0  0  0  0  0  0  0  0  0  0  0  0
   16.5550   17.6680    2.5090   C 0  0  0  0  0  0  0  0  0  0  0  0
   14.1080   19.6530    5.7660   O 0  0  0  0  0  0  0  0  0  0  0  0
   16.1720   16.6190   10.7590   C 0  0  0  0  0  0  0  0  0  0  0  0
   16.5870   15.4880   11.5770   C 0  0  0  0  0  0  0  0  0  0  0  0
   17.6570   15.6630   12.4750   N 0  0  0  0  0  0  0  0  0  0  0  0
   18.3610   16.8840   12.6330   C 0  0  0  0  0  0  0  0  0  0  0  0
   17.9910   18.0160   11.8560   C 0  0  0  0  0  0  0  0  0  0  0  0
  1  2  2  0  0  0  0
  1  3  1  0  0  0  0
  1  6  1  0  0  0  0
  3  4  1  0  0  0  0
  3 18  1  0  0  0  0
  3 20  1  0  0  0  0
  4  5  1  0  0  0  0
  4 17  1  0  0  0  0
  5  6  1  0  0  0  0
  6  7  1  0  0  0  0
  7  8  1  0  0  0  0
  7 11  1  0  0  0  0
  8  9  2  0  0  0  0
  8 16  1  0  0  0  0
  9 10  1  0  0  0  0
  9 13  1  0  0  0  0
 10 11  1  0  0  0  0
 11 12  1  0  0  0  0
 13 14  2  0  0  0  0
 14 15  1  0  0  0  0
 15 16  2  0  0  0  0
 18 19  1  0  0  0  0
 19 35  1  0  0  0  0
 20 21  1  0  0  0  0
 21 22  2  0  0  0  0
 21 26  1  0  0  0  0
 22 23  1  0  0  0  0
 23 24  2  0  0  0  0
 24 25  1  0  0  0  0
 25 26  2  0  0  0  0
 27 28  1  0  0  0  0
 27 49  2  0  0  0  0
 27 53  1  0  0  0  0
 28 29  2  0  0  0  0
 28 33  1  0  0  0  0
 29 30  1  0  0  0  0
 30 31  2  0  0  0  0
 31 32  1  0  0  0  0
 31 34  1  0  0  0  0
 32 33  2  0  0  0  0
 34 35  1  0  0  0  0
 35 36  1  0  0  0  0
 36 37  1  0  0  0  0
 37 38  1  0  0  0  0
 37 48  2  0  0  0  0
 38 39  1  0  0  0  0
 38 44  1  0  0  0  0
 39 40  1  0  0  0  0
 40 41  1  0  0  0  0
 40 43  2  0  0  0  0
 41 42  1  0  0  0  0
 44 45  1  0  0  0  0
 44 46  1  0  0  0  0
 44 47  1  0  0  0  0
 49 50  1  0  0  0  0
 50 51  2  0  0  0  0
 51 52  1  0  0  0  0
 52 53  2  0  0  0  0
M  END
>  <InstanceId>
4A4Q_UX9_A_1100

>  <ChemCompId>
UX9

>  <PdbId>
4A4Q

>  <ChainId>
A

>  <ResidueNumber>
1100

>  <InsertionCode>


>  <Model>
1

>  <AltIds>


>  <MissingHeavyAtoms>
0

>  <ObservedFormula>
C42 N5 O6

>  <Name>
methyl [(2S)-1-{2-(2-{(3R,4S)-3-benzyl-4-hydroxy-1-[(1S,2R)-2-hydroxy-2,3-dihydro-1H-inden-1-yl]-2-oxopyrrolidin-3-yl}ethyl)-2-[4-(pyridin-4-yl)benzyl]hydrazinyl}-3,3-dimethyl-1-oxobutan-2-yl]carbamate

>  <SystematicName>
methyl N-[(2S)-3,3-dimethyl-1-oxidanylidene-1-[2-[2-[(3R,4S)-4-oxidanyl-1-[(1S,2R)-2-oxidanyl-2,3-dihydro-1H-inden-1-yl]-2-oxidanylidene-3-(phenylmethyl)pyrrolidin-3-yl]ethyl]-2-[(4-pyridin-4-ylphenyl)methyl]hydrazinyl]butan-2-yl]carbamate

>  <Synonyms>


>  <Type>
NON-POLYMER

>  <Formula>
C42 H49 N5 O6

>  <MolecularWeight>
719.868

>  <ModifiedDate>
2020-05-30

>  <Parent>


>  <OneLetterCode>


>  <SubcomponentList>


>  <AmbiguousFlag>
N

>  <InChI>
InChI=1S/C42H49N5O6/c1-41(2,3)37(44-40(52)53-4)38(50)45-46(26-29-14-16-30(17-15-29)31-18-21-43-22-19-31)23-20-42(25-28-10-6-5-7-11-28)35(49)27-47(39(42)51)36-33-13-9-8-12-32(33)24-34(36)48/h5-19,21-22,34-37,48-49H,20,23-27H2,1-4H3,(H,44,52)(H,45,50)/t34-,35-,36+,37-,42+/m1/s1

>  <InChIKey>
UUCOHTKAVQHJKS-IQEGRXIQSA-N

>  <SMILES>
CC(C)(C)[C@@H](C(=O)NN(CC[C@@]1([C@@H](CN(C1=O)[C@H]2c3ccccc3C[C@H]2O)O)Cc4ccccc4)Cc5ccc(cc5)c6ccncc6)NC(=O)OC

$$$$
