4KNN_E1F_B_302
  RCSB PDB08012022173D
Coordinates from PDB:4KNN:B:302 Model:1 without hydrogens
 21 22  0  0  0  0            999 V2000
   -4.5310   -5.3950   16.7490   O 0  0  0  0  0  0  0  0  0  0  0  0
  -12.8810    2.2500   20.6770   C 0  0  0  0  0  0  0  0  0  0  0  0
   -7.4100   -1.0020   18.4710   C 0  0  0  0  0  0  0  0  0  0  0  0
   -6.7180   -3.4650   18.3700   C 0  0  0  0  0  0  0  0  0  0  0  0
   -6.5110   -5.0320   19.2150  Cl 0  0  0  0  0  0  0  0  0  0  0  0
   -7.2220   -2.2820   19.0690   C 0  0  0  0  0  0  0  0  0  0  0  0
   -7.1000   -0.9420   17.0870   C 0  0  0  0  0  0  0  0  0  0  0  0
   -6.6150   -2.0800   16.3880   C 0  0  0  0  0  0  0  0  0  0  0  0
   -6.4260   -3.3290   16.9890   C 0  0  0  0  0  0  0  0  0  0  0  0
   -5.8110   -4.7350   16.0580   S 0  0  0  0  0  0  0  0  0  0  0  0
   -5.3040   -4.1320   14.5630   N 0  0  0  0  0  0  0  0  0  0  0  0
   -6.9800   -5.6010   15.9160   O 0  0  0  0  0  0  0  0  0  0  0  0
   -7.9220    0.2360   19.1310   C 0  0  0  0  0  0  0  0  0  0  0  0
   -7.4180    1.3850   18.8650   O 0  0  0  0  0  0  0  0  0  0  0  0
   -9.0020    0.0710   20.1890   C 0  0  0  0  0  0  0  0  0  0  0  0
  -10.5450   -0.9600   20.0740   S 0  0  0  0  0  0  0  0  0  0  0  0
  -11.2740    0.6710   20.0050   C 0  0  0  0  0  0  0  0  0  0  0  0
  -10.7380    1.6440   19.1630   N 0  0  0  0  0  0  0  0  0  0  0  0
  -11.2300    2.8850   19.0320   C 0  0  0  0  0  0  0  0  0  0  0  0
  -12.3340    3.2240   19.8280   C 0  0  0  0  0  0  0  0  0  0  0  0
  -12.3620    0.9800   20.7670   N 0  0  0  0  0  0  0  0  0  0  0  0
 16 17  1  0  0  0  0
 16 15  1  0  0  0  0
 18 17  2  0  0  0  0
 18 19  1  0  0  0  0
 17 21  1  0  0  0  0
 15 13  1  0  0  0  0
 14 13  2  0  0  0  0
 19 20  2  0  0  0  0
 13  3  1  0  0  0  0
  7  3  2  0  0  0  0
  7  8  1  0  0  0  0
  3  6  1  0  0  0  0
 21  2  2  0  0  0  0
 20  2  1  0  0  0  0
  8  9  2  0  0  0  0
  6  4  2  0  0  0  0
  9  4  1  0  0  0  0
  9 10  1  0  0  0  0
  4  5  1  0  0  0  0
 11 10  1  0  0  0  0
 12 10  2  0  0  0  0
 10  1  2  0  0  0  0
M  END
>  <InstanceId>
4KNN_E1F_B_302

>  <ChemCompId>
E1F

>  <PdbId>
4KNN

>  <ChainId>
B

>  <ResidueNumber>
302

>  <InsertionCode>


>  <Model>
1

>  <AltIds>


>  <MissingHeavyAtoms>
0

>  <ObservedFormula>
C12 N3 O3 S2 Cl

>  <Name>
2-chloro-4-[(pyrimidin-2-ylsulfanyl)acetyl]benzenesulfonamide

>  <SystematicName>
2-chloranyl-4-(2-pyrimidin-2-ylsulfanylethanoyl)benzenesulfonamide

>  <Synonyms>


>  <Type>
NON-POLYMER

>  <Formula>
C12 H10 Cl N3 O3 S2

>  <MolecularWeight>
343.809

>  <ModifiedDate>
2013-11-01

>  <Parent>


>  <OneLetterCode>


>  <SubcomponentList>


>  <AmbiguousFlag>
N

>  <InChI>
InChI=1S/C12H10ClN3O3S2/c13-9-6-8(2-3-11(9)21(14,18)19)10(17)7-20-12-15-4-1-5-16-12/h1-6H,7H2,(H2,14,18,19)

>  <InChIKey>
ZQEDEEFNLDNUEW-UHFFFAOYSA-N

>  <SMILES>
c1cnc(nc1)SCC(=O)c2ccc(c(c2)Cl)S(=O)(=O)N

$$$$
