4B32_03V_A_1351
  RCSB PDB08012021113D
Coordinates from PDB:4B32:A:1351 Model:1 without hydrogens
 11 12  0  0  0  0            999 V2000
   22.4130    7.6020   -3.4830   C 0  0  0  0  0  0  0  0  0  0  0  0
   23.7050    5.6950   -4.0780   O 0  0  0  0  0  0  0  0  0  0  0  0
   22.5750    6.2230   -3.5300   C 0  0  0  0  0  0  0  0  0  0  0  0
   21.5880    5.3840   -3.0180   C 0  0  0  0  0  0  0  0  0  0  0  0
   20.4380    5.9430   -2.4620   C 0  0  0  0  0  0  0  0  0  0  0  0
   20.2820    7.3240   -2.4150   C 0  0  0  0  0  0  0  0  0  0  0  0
   21.2670    8.1570   -2.9280   C 0  0  0  0  0  0  0  0  0  0  0  0
   19.1390    7.8870   -1.8590   C 0  0  0  0  0  0  0  0  0  0  0  0
   18.1490    7.0680   -1.3450   C 0  0  0  0  0  0  0  0  0  0  0  0
   18.3080    5.6940   -1.3830   C 0  0  0  0  0  0  0  0  0  0  0  0
   19.4400    5.1240   -1.9340   C 0  0  0  0  0  0  0  0  0  0  0  0
  3  1  2  0  0  0  0
  1  7  1  0  0  0  0
  2  3  1  0  0  0  0
  4  3  1  0  0  0  0
  4  5  2  0  0  0  0
 11  5  1  0  0  0  0
  5  6  1  0  0  0  0
  6  8  1  0  0  0  0
  6  7  2  0  0  0  0
  9  8  2  0  0  0  0
 10  9  1  0  0  0  0
 11 10  2  0  0  0  0
M  END
>  <InstanceId>
4B32_03V_A_1351

>  <ChemCompId>
03V

>  <PdbId>
4B32

>  <ChainId>
A

>  <ResidueNumber>
1351

>  <InsertionCode>


>  <Model>
1

>  <AltIds>


>  <MissingHeavyAtoms>
0

>  <ObservedFormula>
C10 O

>  <Name>
naphthalen-2-ol

>  <SystematicName>
naphthalen-2-ol

>  <Synonyms>
2-Naphtol

>  <Type>
NON-POLYMER

>  <Formula>
C10 H8 O

>  <MolecularWeight>
144.17

>  <ModifiedDate>
2020-06-17

>  <Parent>


>  <OneLetterCode>


>  <SubcomponentList>


>  <AmbiguousFlag>
N

>  <InChI>
InChI=1S/C10H8O/c11-10-6-5-8-3-1-2-4-9(8)7-10/h1-7,11H

>  <InChIKey>
JWAZRIHNYRIHIV-UHFFFAOYSA-N

>  <SMILES>
c1ccc2cc(ccc2c1)O

$$$$
