1EGH_PGA_A_201
  RCSB PDB08012014503D
Coordinates from PDB:1EGH:A:201 Model:1 without hydrogens
  9  8  0  0  0  0            999 V2000
   84.1830  -12.3000   66.6850   P 0  0  0  0  0  0  0  0  0  0  0  0
   85.3810  -13.1100   65.9940   O 0  0  0  0  0  0  0  0  0  0  0  0
   84.6390  -12.2180   68.0790   O 0  0  0  0  0  0  0  0  0  0  0  0
   84.1630  -11.0260   65.8950   O 0  0  0  0  0  0  0  0  0  0  0  0
   82.9580  -13.1100   66.5040   O 0  0  0  0  0  0  0  0  0  0  0  0
   85.7690  -14.3460   66.5540   C 0  0  0  0  0  0  0  0  0  0  0  0
   86.3070  -15.2870   65.5050   C 0  0  0  0  0  0  0  0  0  0  0  0
   85.5590  -15.5910   64.5500   O 0  0  0  0  0  0  0  0  0  0  0  0
   87.4780  -15.7190   65.6330   O 0  0  0  0  0  0  0  0  0  0  0  0
  1  2  1  0  0  0  0
  1  3  2  0  0  0  0
  1  4  1  0  0  0  0
  1  5  1  0  0  0  0
  2  6  1  0  0  0  0
  6  7  1  0  0  0  0
  7  8  2  0  0  0  0
  7  9  1  0  0  0  0
M  END
>  <InstanceId>
1EGH_PGA_A_201

>  <ChemCompId>
PGA

>  <PdbId>
1EGH

>  <ChainId>
A

>  <ResidueNumber>
201

>  <InsertionCode>


>  <Model>
1

>  <AltIds>


>  <MissingHeavyAtoms>
0

>  <ObservedFormula>
C2 O6 P

>  <Name>
2-PHOSPHOGLYCOLIC ACID

>  <SystematicName>
2-phosphonooxyethanoic acid

>  <Synonyms>


>  <Type>
NON-POLYMER

>  <Formula>
C2 H5 O6 P

>  <MolecularWeight>
156.031

>  <ModifiedDate>
2011-06-04

>  <Parent>


>  <OneLetterCode>


>  <SubcomponentList>


>  <AmbiguousFlag>
N

>  <InChI>
InChI=1S/C2H5O6P/c3-2(4)1-8-9(5,6)7/h1H2,(H,3,4)(H2,5,6,7)

>  <InChIKey>
ASCFNMCAHFUBCO-UHFFFAOYSA-N

>  <SMILES>
C(C(=O)O)OP(=O)(O)O

$$$$
