4ZL4_4PK_A_501
  RCSB PDB08022000393D
Coordinates from PDB:4ZL4:A:501 Model:1 without hydrogens
 48 49  0  0  0  0            999 V2000
    0.5020  107.3970   39.2230   C 0  0  0  0  0  0  0  0  0  0  0  0
   -1.5940  104.1680   40.9690   C 0  0  0  0  0  0  0  0  0  0  0  0
   -0.9180  105.3330   41.0340   O 0  0  0  0  0  0  0  0  0  0  0  0
   -1.5560  106.3500   40.2500   C 0  0  0  0  0  0  0  0  0  0  0  0
   -0.7000  106.6940   39.0480   C 0  0  0  0  0  0  0  0  0  0  0  0
   -1.1080  106.3070   37.7570   C 0  0  0  0  0  0  0  0  0  0  0  0
   -0.3160  106.6280   36.6440   C 0  0  0  0  0  0  0  0  0  0  0  0
    0.8850  107.3330   36.8240   C 0  0  0  0  0  0  0  0  0  0  0  0
    1.2960  107.7180   38.1110   C 0  0  0  0  0  0  0  0  0  0  0  0
   -2.8240  104.1470   40.9980   O 0  0  0  0  0  0  0  0  0  0  0  0
   -0.8960  102.9900   40.8630   N 0  0  0  0  0  0  0  0  0  0  0  0
   -1.6350  101.7240   40.8130   C 0  0  0  0  0  0  0  0  0  0  0  0
   -0.8570  100.6740   40.0130   C 0  0  0  0  0  0  0  0  0  0  0  0
   -0.3900  101.2040   38.6590   C 0  0  0  0  0  0  0  0  0  0  0  0
   -1.7470  101.0840   42.2230   C 0  0  0  0  0  0  0  0  0  0  0  0
   -1.5470  101.5320   37.9050   O 0  0  0  0  0  0  0  0  0  0  0  0
   -2.4750  100.4880   37.8700   N 0  0  0  0  0  0  0  0  0  0  0  0
   -2.6660   99.8710   36.6860   C 0  0  0  0  0  0  0  0  0  0  0  0
   -1.9660  100.2500   35.6040   N 0  0  0  0  0  0  0  0  0  0  0  0
   -3.5590   98.8760   36.5760   N 0  0  0  0  0  0  0  0  0  0  0  0
   -0.9720  101.3290   43.1480   O 0  0  0  0  0  0  0  0  0  0  0  0
   -2.7640  100.1870   42.4370   N 0  0  0  0  0  0  0  0  0  0  0  0
   -2.9280   99.4850   43.7040   C 0  0  0  0  0  0  0  0  0  0  0  0
   -3.4310   98.0880   43.2350   C 0  0  0  0  0  0  0  0  0  0  0  0
   -4.6250   97.8800   42.9900   O 0  0  0  0  0  0  0  0  0  0  0  0
   -3.9450  100.1490   44.6340   C 0  0  0  0  0  0  0  0  0  0  0  0
   -3.7500   99.4340   45.9920   C 0  0  0  0  0  0  0  0  0  0  0  0
   -3.6520  101.6620   44.7740   C 0  0  0  0  0  0  0  0  0  0  0  0
   -2.5120   97.0820   43.0550   N 0  0  0  0  0  0  0  0  0  0  0  0
   -2.9400   95.7660   42.5640   C 0  0  0  0  0  0  0  0  0  0  0  0
   -2.2220   95.4950   41.2210   C 0  0  0  0  0  0  0  0  0  0  0  0
   -2.4610   96.6040   40.1770   C 0  0  0  0  0  0  0  0  0  0  0  0
   -1.5460   96.3720   38.9600   C 0  0  0  0  0  0  0  0  0  0  0  0
   -3.9290   96.6230   39.7060   C 0  0  0  0  0  0  0  0  0  0  0  0
   -2.5290   94.6740   43.5630   C 0  0  0  0  0  0  0  0  0  0  0  0
   -1.1600   94.8820   43.9100   O 0  0  0  0  0  0  0  0  0  0  0  0
   -3.4250   94.7120   44.8140   C 0  0  0  0  0  0  0  0  0  0  0  0
   -4.7930   94.0410   44.5080   C 0  0  0  0  0  0  0  0  0  0  0  0
   -5.7970   94.7280   44.3070   O 0  0  0  0  0  0  0  0  0  0  0  0
   -6.2320   91.5420   46.6010   C 0  0  0  0  0  0  0  0  0  0  0  0
   -7.3760   92.1860   47.0820   C 0  0  0  0  0  0  0  0  0  0  0  0
   -7.3230   92.8510   48.3150   C 0  0  0  0  0  0  0  0  0  0  0  0
   -6.1280   92.8730   49.0520   C 0  0  0  0  0  0  0  0  0  0  0  0
   -4.9820   92.2340   48.5620   C 0  0  0  0  0  0  0  0  0  0  0  0
   -5.0370   91.5680   47.3320   C 0  0  0  0  0  0  0  0  0  0  0  0
   -6.2870   90.8410   45.2460   C 0  0  0  0  0  0  0  0  0  0  0  0
   -6.1430   91.9710   44.2110   C 0  0  0  0  0  0  0  0  0  0  0  0
   -4.8740   92.6610   44.4750   N 0  0  0  0  0  0  0  0  0  0  0  0
 19 18  2  0  0  0  0
 20 18  1  0  0  0  0
  7  8  2  0  0  0  0
  7  6  1  0  0  0  0
 18 17  1  0  0  0  0
  8  9  1  0  0  0  0
  6  5  2  0  0  0  0
 17 16  1  0  0  0  0
 16 14  1  0  0  0  0
  9  1  2  0  0  0  0
 14 13  1  0  0  0  0
 33 32  1  0  0  0  0
  5  1  1  0  0  0  0
  5  4  1  0  0  0  0
 34 32  1  0  0  0  0
 13 12  1  0  0  0  0
 32 31  1  0  0  0  0
  4  3  1  0  0  0  0
 12 11  1  0  0  0  0
 12 15  1  0  0  0  0
 11  2  1  0  0  0  0
  2 10  2  0  0  0  0
  2  3  1  0  0  0  0
 31 30  1  0  0  0  0
 15 22  1  0  0  0  0
 15 21  2  0  0  0  0
 22 23  1  0  0  0  0
 30 29  1  0  0  0  0
 30 35  1  0  0  0  0
 25 24  2  0  0  0  0
 29 24  1  0  0  0  0
 24 23  1  0  0  0  0
 35 36  1  0  0  0  0
 35 37  1  0  0  0  0
 23 26  1  0  0  0  0
 47 48  1  0  0  0  0
 47 46  1  0  0  0  0
 39 38  2  0  0  0  0
 48 38  1  0  0  0  0
 38 37  1  0  0  0  0
 26 28  1  0  0  0  0
 26 27  1  0  0  0  0
 46 40  1  0  0  0  0
 40 41  2  0  0  0  0
 40 45  1  0  0  0  0
 41 42  1  0  0  0  0
 45 44  2  0  0  0  0
 42 43  2  0  0  0  0
 44 43  1  0  0  0  0
M  END
>  <InstanceId>
4ZL4_4PK_A_501

>  <ChemCompId>
4PK

>  <PdbId>
4ZL4

>  <ChainId>
A

>  <ResidueNumber>
501

>  <InsertionCode>


>  <Model>
1

>  <AltIds>


>  <MissingHeavyAtoms>
0

>  <ObservedFormula>
C34 N7 O7

>  <Name>
N-[(benzyloxy)carbonyl]-O-carbamimidamido-L-homoseryl-N-{(3S,4S)-3-hydroxy-6-methyl-1-oxo-1-[(2-phenylethyl)amino]heptan-4-yl}-L-valinamide

>  <SystematicName>
(phenylmethyl) N-[(2S)-4-carbamimidamidooxy-1-[[(2S)-3-methyl-1-[[(3S,4S)-6-methyl-3-oxidanyl-1-oxidanylidene-1-(2-phenylethylamino)heptan-4-yl]amino]-1-oxidanylidene-butan-2-yl]amino]-1-oxidanylidene-butan-2-yl]carbamate

>  <Synonyms>


>  <Type>
peptide-like

>  <Formula>
C34 H51 N7 O7

>  <MolecularWeight>
669.811

>  <ModifiedDate>
2015-07-10

>  <Parent>


>  <OneLetterCode>


>  <SubcomponentList>
PHQ GGB VAL STA PEA

>  <AmbiguousFlag>
N

>  <InChI>
InChI=1S/C34H51N7O7/c1-22(2)19-27(28(42)20-29(43)37-17-15-24-11-7-5-8-12-24)38-32(45)30(23(3)4)40-31(44)26(16-18-48-41-33(35)36)39-34(46)47-21-25-13-9-6-10-14-25/h5-14,22-23,26-28,30,42H,15-21H2,1-4H3,(H,37,43)(H,38,45)(H,39,46)(H,40,44)(H4,35,36,41)/t26-,27-,28-,30-/m0/s1

>  <InChIKey>
VAHRPHLZONNTFF-NUISNXNRSA-N

>  <SMILES>
[H]/N=C(/N)\NOCC[C@@H](C(=O)N[C@@H](C(C)C)C(=O)N[C@@H](CC(C)C)[C@H](CC(=O)NCCc1ccccc1)O)NC(=O)OCc2ccccc2

$$$$
