5EWK_P34_A_301
  RCSB PDB08022001173D
Coordinates from PDB:5EWK:A:301 Model:1 without hydrogens
 22 24  0  0  0  0            999 V2000
   19.4990   30.8870   17.5580   C 0  0  0  0  0  0  0  0  0  0  0  0
   19.0900   30.9140   18.9580   N 0  0  0  0  0  0  0  0  0  0  0  0
   19.1690   29.5760   19.4750   C 0  0  0  0  0  0  0  0  0  0  0  0
   19.9820   31.7590   19.7190   C 0  0  0  0  0  0  0  0  0  0  0  0
   19.4940   32.5650   20.9440   C 0  0  0  0  0  0  0  0  0  0  0  0
   18.2850   32.7560   21.1270   O 0  0  0  0  0  0  0  0  0  0  0  0
   20.4580   33.0950   21.7690   N 0  0  0  0  0  0  0  0  0  0  0  0
   21.8460   32.8700   21.5760   C 0  0  0  0  0  0  0  0  0  0  0  0
   22.7340   33.9310   21.3760   C 0  0  0  0  0  0  0  0  0  0  0  0
   24.1050   33.6250   21.1660   C 0  0  0  0  0  0  0  0  0  0  0  0
   25.1520   34.6360   20.9560   C 0  0  0  0  0  0  0  0  0  0  0  0
   24.8690   36.0000   20.9190   C 0  0  0  0  0  0  0  0  0  0  0  0
   25.8840   36.9120   20.7220   C 0  0  0  0  0  0  0  0  0  0  0  0
   27.2030   36.4960   20.4980   C 0  0  0  0  0  0  0  0  0  0  0  0
   27.4930   35.1280   20.5210   C 0  0  0  0  0  0  0  0  0  0  0  0
   26.4770   34.2120   20.7360   C 0  0  0  0  0  0  0  0  0  0  0  0
   26.8550   32.7970   20.7950   C 0  0  0  0  0  0  0  0  0  0  0  0
   28.0080   32.3900   20.6190   O 0  0  0  0  0  0  0  0  0  0  0  0
   25.8590   31.9060   20.9930   N 0  0  0  0  0  0  0  0  0  0  0  0
   24.5030   32.2920   21.1920   C 0  0  0  0  0  0  0  0  0  0  0  0
   23.5940   31.2490   21.3890   C 0  0  0  0  0  0  0  0  0  0  0  0
   22.2880   31.5670   21.6050   C 0  0  0  0  0  0  0  0  0  0  0  0
  1  2  1  0  0  0  0
  2  3  1  0  0  0  0
  2  4  1  0  0  0  0
  4  5  1  0  0  0  0
  5  6  2  0  0  0  0
  5  7  1  0  0  0  0
  7  8  1  0  0  0  0
  8  9  1  0  0  0  0
  8 22  2  0  0  0  0
  9 10  2  0  0  0  0
 10 11  1  0  0  0  0
 10 20  1  0  0  0  0
 11 12  1  0  0  0  0
 11 16  2  0  0  0  0
 12 13  2  0  0  0  0
 13 14  1  0  0  0  0
 14 15  2  0  0  0  0
 15 16  1  0  0  0  0
 16 17  1  0  0  0  0
 17 18  2  0  0  0  0
 17 19  1  0  0  0  0
 19 20  1  0  0  0  0
 20 21  2  0  0  0  0
 21 22  1  0  0  0  0
M  END
>  <InstanceId>
5EWK_P34_A_301

>  <ChemCompId>
P34

>  <PdbId>
5EWK

>  <ChainId>
A

>  <ResidueNumber>
301

>  <InsertionCode>


>  <Model>
1

>  <AltIds>


>  <MissingHeavyAtoms>
0

>  <ObservedFormula>
C17 N3 O2

>  <Name>
N~2~,N~2~-DIMETHYL-N~1~-(6-OXO-5,6-DIHYDROPHENANTHRIDIN-2-YL)GLYCINAMIDE

>  <SystematicName>
2-dimethylamino-N-(6-oxo-5H-phenanthridin-2-yl)ethanamide

>  <Synonyms>


>  <Type>
NON-POLYMER

>  <Formula>
C17 H17 N3 O2

>  <MolecularWeight>
295.336

>  <ModifiedDate>
2011-06-04

>  <Parent>


>  <OneLetterCode>


>  <SubcomponentList>


>  <AmbiguousFlag>
N

>  <InChI>
InChI=1S/C17H17N3O2/c1-20(2)10-16(21)18-11-7-8-15-14(9-11)12-5-3-4-6-13(12)17(22)19-15/h3-9H,10H2,1-2H3,(H,18,21)(H,19,22)

>  <InChIKey>
UYJZZVDLGDDTCL-UHFFFAOYSA-N

>  <SMILES>
CN(C)CC(=O)Nc1ccc2c(c1)-c3ccccc3C(=O)N2

$$$$
