5U0E_7R4_A_302
  RCSB PDB08022003093D
Coordinates from PDB:5U0E:A:302 Model:1 without hydrogens
 14 15  0  0  0  0            999 V2000
   -3.1080    6.8850   14.0640   C 0  0  0  0  0  0  0  0  0  0  0  0
   -4.4220    6.5180   14.2120   C 0  0  0  0  0  0  0  0  0  0  0  0
   -2.1940    5.9190   13.7640   C 0  0  0  0  0  0  0  0  0  0  0  0
   -4.8420    5.2140   14.0840   C 0  0  0  0  0  0  0  0  0  0  0  0
   -2.6250    4.6090   13.6320   C 0  0  0  0  0  0  0  0  0  0  0  0
   -3.9430    4.2330   13.7910   C 0  0  0  0  0  0  0  0  0  0  0  0
   -4.6310    0.6400   14.7640   C 0  0  0  0  0  0  0  0  0  0  0  0
   -5.7220    1.2980   16.5980   C 0  0  0  0  0  0  0  0  0  0  0  0
   -3.9960    2.0080   14.8830   C 0  0  0  0  0  0  0  0  0  0  0  0
   -4.4400    2.8290   13.6710   C 0  0  0  0  0  0  0  0  0  0  0  0
   -5.5580    0.3360   15.6760   N 0  0  0  0  0  0  0  0  0  0  0  0
   -4.3180   -0.1510   13.8910   O 0  0  0  0  0  0  0  0  0  0  0  0
   -6.7660    1.2900   17.8760   S 0  0  0  0  0  0  0  0  0  0  0  0
   -4.6590    2.6500   16.4180   S 0  0  0  0  0  0  0  0  0  0  0  0
  5  3  2  0  0  0  0
  5  6  1  0  0  0  0
 10  6  1  0  0  0  0
 10  9  1  0  0  0  0
  3  1  1  0  0  0  0
  6  4  2  0  0  0  0
 12  7  2  0  0  0  0
  1  2  2  0  0  0  0
  4  2  1  0  0  0  0
  7  9  1  0  0  0  0
  7 11  1  0  0  0  0
  9 14  1  0  0  0  0
 11  8  1  0  0  0  0
 14  8  1  0  0  0  0
  8 13  2  0  0  0  0
M  END
>  <InstanceId>
5U0E_7R4_A_302

>  <ChemCompId>
7R4

>  <PdbId>
5U0E

>  <ChainId>
A

>  <ResidueNumber>
302

>  <InsertionCode>


>  <Model>
1

>  <AltIds>


>  <MissingHeavyAtoms>
0

>  <ObservedFormula>
C10 N O S2

>  <Name>
(5R)-5-benzyl-2-sulfanylidene-1,3-thiazolidin-4-one

>  <SystematicName>
(5~{R})-5-(phenylmethyl)-2-sulfanylidene-1,3-thiazolidin-4-one

>  <Synonyms>


>  <Type>
NON-POLYMER

>  <Formula>
C10 H9 N O S2

>  <MolecularWeight>
223.315

>  <ModifiedDate>
2017-08-25

>  <Parent>


>  <OneLetterCode>


>  <SubcomponentList>


>  <AmbiguousFlag>
N

>  <InChI>
InChI=1S/C10H9NOS2/c12-9-8(14-10(13)11-9)6-7-4-2-1-3-5-7/h1-5,8H,6H2,(H,11,12,13)/t8-/m1/s1

>  <InChIKey>
HEFVAMUJRPNDFW-MRVPVSSYSA-N

>  <SMILES>
c1ccc(cc1)C[C@@H]2C(=O)NC(=S)S2

$$$$
