5TCJ_79V_B_505
  RCSB PDB08022003033D
Coordinates from PDB:5TCJ:B:505 Model:1 without hydrogens
 21 23  0  0  0  0            999 V2000
   69.5520   -8.4850   24.4020   C 0  0  0  0  0  0  0  0  0  0  0  0
   71.3970  -10.9450   21.1750   C 0  0  0  0  0  0  0  0  0  0  0  0
   70.6980  -10.1260   22.1770   C 0  0  0  0  0  0  0  0  0  0  0  0
   70.1330   -9.8780   24.2240   C 0  0  0  0  0  0  0  0  0  0  0  0
   68.1180  -10.7570   22.6610   C 0  0  0  0  0  0  0  0  0  0  0  0
   67.6730  -10.3390   21.3630   C 0  0  0  0  0  0  0  0  0  0  0  0
   66.2870  -10.3430   21.0110   C 0  0  0  0  0  0  0  0  0  0  0  0
   69.6050  -10.7950   23.0790   C 0  0  0  0  0  0  0  0  0  0  0  0
   61.4110  -10.2880   22.0580   C 0  0  0  0  0  0  0  0  0  0  0  0
   60.9920  -11.0340   20.9340   C 0  0  0  0  0  0  0  0  0  0  0  0
   61.9550  -11.6790   20.1260   C 0  0  0  0  0  0  0  0  0  0  0  0
   63.3470  -11.5850   20.4430   C 0  0  0  0  0  0  0  0  0  0  0  0
   63.7940  -10.8120   21.5800   C 0  0  0  0  0  0  0  0  0  0  0  0
   62.7890  -10.1930   22.3720   C 0  0  0  0  0  0  0  0  0  0  0  0
   65.2820  -10.7570   21.9300   C 0  0  0  0  0  0  0  0  0  0  0  0
   65.7300  -11.1880   23.2090   C 0  0  0  0  0  0  0  0  0  0  0  0
   67.1030  -11.1880   23.5630   C 0  0  0  0  0  0  0  0  0  0  0  0
   71.4950   -9.9090   23.4670   N 0  0  0  0  0  0  0  0  0  0  0  0
   71.9360  -11.5990   20.3700   N 0  0  0  0  0  0  0  0  0  0  0  0
   70.2720   -7.3700   23.6850   O 0  0  0  0  0  0  0  0  0  0  0  0
   64.2290  -12.2030   19.6710   F 0  0  0  0  0  0  0  0  0  0  0  0
 10  9  2  0  0  0  0
 10 11  1  0  0  0  0
  9 14  1  0  0  0  0
 11 12  2  0  0  0  0
 14 13  2  0  0  0  0
 12 13  1  0  0  0  0
 12 21  1  0  0  0  0
 13 15  1  0  0  0  0
 15  7  2  0  0  0  0
 15 16  1  0  0  0  0
  7  6  1  0  0  0  0
 16 17  2  0  0  0  0
  6  5  2  0  0  0  0
 20  1  1  0  0  0  0
 17  5  1  0  0  0  0
  5  8  1  0  0  0  0
  1  4  1  0  0  0  0
  8  4  1  0  0  0  0
  8  3  1  0  0  0  0
  4 18  1  0  0  0  0
  3 18  1  0  0  0  0
  3  2  1  0  0  0  0
  2 19  3  0  0  0  0
M  END
>  <InstanceId>
5TCJ_79V_B_505

>  <ChemCompId>
79V

>  <PdbId>
5TCJ

>  <ChainId>
B

>  <ResidueNumber>
505

>  <InsertionCode>


>  <Model>
1

>  <AltIds>


>  <MissingHeavyAtoms>
0

>  <ObservedFormula>
C17 N2 O F

>  <Name>
(2R,3S,4R)-3-(2'-fluoro[1,1'-biphenyl]-4-yl)-4-(hydroxymethyl)azetidine-2-carbonitrile

>  <SystematicName>
(2~{R},3~{S},4~{R})-3-[4-(2-fluorophenyl)phenyl]-4-(hydroxymethyl)azetidine-2-carbonitrile

>  <Synonyms>
BRD4592

>  <Type>
NON-POLYMER

>  <Formula>
C17 H15 F N2 O

>  <MolecularWeight>
282.312

>  <ModifiedDate>
2020-06-17

>  <Parent>


>  <OneLetterCode>


>  <SubcomponentList>


>  <AmbiguousFlag>
N

>  <InChI>
InChI=1S/C17H15FN2O/c18-14-4-2-1-3-13(14)11-5-7-12(8-6-11)17-15(9-19)20-16(17)10-21/h1-8,15-17,20-21H,10H2/t15-,16-,17-/m0/s1

>  <InChIKey>
RECLLIAWOQFAMC-ULQDDVLXSA-N

>  <SMILES>
c1ccc(c(c1)c2ccc(cc2)[C@@H]3[C@@H](N[C@H]3C#N)CO)F

$$$$
