5A6K_NSG_A_1627
  RCSB PDB08022000433D
Coordinates from PDB:5A6K:A:1627 Model:1 without hydrogens
 14 15  0  0  0  0            999 V2000
  -21.1980  -32.5070   13.3010   C 0  0  0  0  0  0  0  0  0  0  0  0
  -21.5540  -32.8870   11.5910   S 0  0  0  0  0  0  0  0  0  0  0  0
  -22.5800  -32.2350   13.8910   C 0  0  0  0  0  0  0  0  0  0  0  0
  -23.4000  -33.3260   13.3210   N 0  0  0  0  0  0  0  0  0  0  0  0
  -23.1320  -30.8090   13.5430   C 0  0  0  0  0  0  0  0  0  0  0  0
  -24.3460  -30.5040   14.2590   O 0  0  0  0  0  0  0  0  0  0  0  0
  -22.0820  -29.6900   13.7730   C 0  0  0  0  0  0  0  0  0  0  0  0
  -21.9300  -29.4310   15.1640   O 0  0  0  0  0  0  0  0  0  0  0  0
  -20.7750  -30.1240   13.0700   C 0  0  0  0  0  0  0  0  0  0  0  0
  -20.3220  -31.3670   13.5570   O 0  0  0  0  0  0  0  0  0  0  0  0
  -19.5780  -29.1540   13.2190   C 0  0  0  0  0  0  0  0  0  0  0  0
  -19.0990  -29.0810   14.5560   O 0  0  0  0  0  0  0  0  0  0  0  0
  -23.2670  -33.3020   11.8610   C 0  0  0  0  0  0  0  0  0  0  0  0
  -23.7120  -34.5970   11.1710   C 0  0  0  0  0  0  0  0  0  0  0  0
  1  2  1  0  0  0  0
  1  3  1  0  0  0  0
  1 10  1  0  0  0  0
  2 13  1  0  0  0  0
  3  4  1  0  0  0  0
  3  5  1  0  0  0  0
  4 13  1  0  0  0  0
  5  6  1  0  0  0  0
  5  7  1  0  0  0  0
  7  8  1  0  0  0  0
  7  9  1  0  0  0  0
  9 10  1  0  0  0  0
  9 11  1  0  0  0  0
 11 12  1  0  0  0  0
 13 14  1  0  0  0  0
M  END
>  <InstanceId>
5A6K_NSG_A_1627

>  <ChemCompId>
NSG

>  <PdbId>
5A6K

>  <ChainId>
A

>  <ResidueNumber>
1627

>  <InsertionCode>


>  <Model>
1

>  <AltIds>


>  <MissingHeavyAtoms>
0

>  <ObservedFormula>
C8 N O4 S

>  <Name>
(2S,3aR,5R,6R,7R,7aR)-5-(hydroxymethyl)-2-methyl-2,3a,5,6,7,7a-hexahydro-1H-pyrano[3,2-d][1,3]thiazole-6,7-diol

>  <SystematicName>
(2S,3aR,5R,6R,7R,7aR)-5-(hydroxymethyl)-2-methyl-2,3a,5,6,7,7a-hexahydro-1H-pyrano[3,2-d][1,3]thiazole-6,7-diol

>  <Synonyms>


>  <Type>
NON-POLYMER

>  <Formula>
C8 H15 N O4 S

>  <MolecularWeight>
221.274

>  <ModifiedDate>
2015-09-18

>  <Parent>


>  <OneLetterCode>


>  <SubcomponentList>


>  <AmbiguousFlag>
N

>  <InChI>
InChI=1S/C8H15NO4S/c1-3-9-5-7(12)6(11)4(2-10)13-8(5)14-3/h3-12H,2H2,1H3/t3-,4+,5+,6-,7+,8+/m0/s1

>  <InChIKey>
XWPUWEBFKDEDIF-JMHNFOGYSA-N

>  <SMILES>
C[C@H]1N[C@@H]2[C@H]([C@H]([C@H](O[C@@H]2S1)CO)O)O

$$$$
