1CEB_AMH_A_90
  RCSB PDB08012014413D
Coordinates from PDB:1CEB:A:90 Model:1 without hydrogens
 11 11  0  0  0  0            999 V2000
   21.9090   -3.5670   40.8230   C 0  0  0  0  0  0  0  0  0  0  0  0
   22.0520   -2.2980   40.0920   C 0  0  0  0  0  0  0  0  0  0  0  0
   20.7430   -1.6000   39.9020   C 0  0  0  0  0  0  0  0  0  0  0  0
   19.8410   -1.6570   41.0620   C 0  0  0  0  0  0  0  0  0  0  0  0
   19.7300   -2.9920   41.7890   C 0  0  0  0  0  0  0  0  0  0  0  0
   21.0410   -3.6860   42.0220   C 0  0  0  0  0  0  0  0  0  0  0  0
   18.3710   -1.0160   40.8590   C 0  0  0  0  0  0  0  0  0  0  0  0
   23.0010   -4.6150   40.7470   C 0  0  0  0  0  0  0  0  0  0  0  0
   18.1280   -0.5020   42.1640   N 0  0  0  0  0  0  0  0  0  0  0  0
   24.2000   -4.4640   40.9570   O 0  0  0  0  0  0  0  0  0  0  0  0
   22.5780   -5.7630   40.3660   O 0  0  0  0  0  0  0  0  0  0  0  0
  1  2  1  0  0  0  0
  1  6  1  0  0  0  0
  1  8  1  0  0  0  0
  2  3  1  0  0  0  0
  3  4  1  0  0  0  0
  4  5  1  0  0  0  0
  4  7  1  0  0  0  0
  5  6  1  0  0  0  0
  7  9  1  0  0  0  0
  8 10  2  0  0  0  0
  8 11  1  0  0  0  0
M  END
>  <InstanceId>
1CEB_AMH_A_90

>  <ChemCompId>
AMH

>  <PdbId>
1CEB

>  <ChainId>
A

>  <ResidueNumber>
90

>  <InsertionCode>


>  <Model>
1

>  <AltIds>


>  <MissingHeavyAtoms>
0

>  <ObservedFormula>
C8 N O2

>  <Name>
TRANS-4-AMINOMETHYLCYCLOHEXANE-1-CARBOXYLIC ACID

>  <SystematicName>
4-(aminomethyl)cyclohexane-1-carboxylic acid

>  <Synonyms>


>  <Type>
NON-POLYMER

>  <Formula>
C8 H15 N O2

>  <MolecularWeight>
157.21

>  <ModifiedDate>
2011-06-04

>  <Parent>


>  <OneLetterCode>


>  <SubcomponentList>


>  <AmbiguousFlag>
N

>  <InChI>
InChI=1S/C8H15NO2/c9-5-6-1-3-7(4-2-6)8(10)11/h6-7H,1-5,9H2,(H,10,11)/t6-,7-

>  <InChIKey>
GYDJEQRTZSCIOI-LJGSYFOKSA-N

>  <SMILES>
C1CC(CCC1CN)C(=O)O

$$$$
