2WOR_2AN_A_1098
  RCSB PDB08012018093D
Coordinates from PDB:2WOR:A:1098 Model:1 without hydrogens
 21 23  0  0  0  0            999 V2000
    2.7420    5.4730    7.0170   C 0  0  0  0  0  0  0  0  0  0  0  0
    4.0790    5.6850    7.4370   C 0  0  0  0  0  0  0  0  0  0  0  0
    5.1890    5.8660    6.5310   C 0  0  0  0  0  0  0  0  0  0  0  0
    4.8820    5.8110    5.1890   C 0  0  0  0  0  0  0  0  0  0  0  0
    3.5890    5.6290    4.6960   C 0  0  0  0  0  0  0  0  0  0  0  0
    3.3390    5.6160    3.2950   C 0  0  0  0  0  0  0  0  0  0  0  0
    2.0380    5.4090    2.8080   C 0  0  0  0  0  0  0  0  0  0  0  0
    0.8440    5.2630    3.6220   C 0  0  0  0  0  0  0  0  0  0  0  0
    1.7350    5.1920    7.9830   N 0  0  0  0  0  0  0  0  0  0  0  0
   -0.4460    5.3380    5.8990   S 0  0  0  0  0  0  0  0  0  0  0  0
    1.0050    5.3260    5.0090   C 0  0  0  0  0  0  0  0  0  0  0  0
    2.3970    5.4450    5.5910   C 0  0  0  0  0  0  0  0  0  0  0  0
    1.4100    5.9290    9.0630   C 0  0  0  0  0  0  0  0  0  0  0  0
    0.5460    5.2470    9.9960   C 0  0  0  0  0  0  0  0  0  0  0  0
    0.2290    6.0010   11.2000   C 0  0  0  0  0  0  0  0  0  0  0  0
    0.6590    7.3020   11.3020   C 0  0  0  0  0  0  0  0  0  0  0  0
    1.4980    7.9740   10.3410   C 0  0  0  0  0  0  0  0  0  0  0  0
    1.8870    7.2270    9.1940   C 0  0  0  0  0  0  0  0  0  0  0  0
   -1.5950    5.4450    4.9360   O 0  0  0  0  0  0  0  0  0  0  0  0
   -0.4240    6.5940    6.6020   O 0  0  0  0  0  0  0  0  0  0  0  0
   -0.6040    4.1700    6.7980   O 0  0  0  0  0  0  0  0  0  0  0  0
  1  2  2  0  0  0  0
  1  9  1  0  0  0  0
  1 12  1  0  0  0  0
  2  3  1  0  0  0  0
  3  4  2  0  0  0  0
  4  5  1  0  0  0  0
  5  6  2  0  0  0  0
  5 12  1  0  0  0  0
  6  7  1  0  0  0  0
  7  8  2  0  0  0  0
  8 11  1  0  0  0  0
  9 13  1  0  0  0  0
 10 11  1  0  0  0  0
 10 19  2  0  0  0  0
 10 20  2  0  0  0  0
 10 21  1  0  0  0  0
 11 12  2  0  0  0  0
 13 14  2  0  0  0  0
 13 18  1  0  0  0  0
 14 15  1  0  0  0  0
 15 16  2  0  0  0  0
 16 17  1  0  0  0  0
 17 18  2  0  0  0  0
M  END
>  <InstanceId>
2WOR_2AN_A_1098

>  <ChemCompId>
2AN

>  <PdbId>
2WOR

>  <ChainId>
A

>  <ResidueNumber>
1098

>  <InsertionCode>


>  <Model>
1

>  <AltIds>


>  <MissingHeavyAtoms>
0

>  <ObservedFormula>
C16 N O3 S

>  <Name>
8-ANILINO-1-NAPHTHALENE SULFONATE

>  <SystematicName>
8-phenylazanylnaphthalene-1-sulfonic acid

>  <Synonyms>


>  <Type>
NON-POLYMER

>  <Formula>
C16 H13 N O3 S

>  <MolecularWeight>
299.344

>  <ModifiedDate>
2011-06-04

>  <Parent>


>  <OneLetterCode>


>  <SubcomponentList>


>  <AmbiguousFlag>
N

>  <InChI>
InChI=1S/C16H13NO3S/c18-21(19,20)15-11-5-7-12-6-4-10-14(16(12)15)17-13-8-2-1-3-9-13/h1-11,17H,(H,18,19,20)

>  <InChIKey>
FWEOQOXTVHGIFQ-UHFFFAOYSA-N

>  <SMILES>
c1ccc(cc1)Nc2cccc3c2c(ccc3)S(=O)(=O)O

$$$$
