2BAL_PQA_A_401
  RCSB PDB08012016403D
Coordinates from PDB:2BAL:A:401 Model:1 without hydrogens
 28 31  0  0  0  0            999 V2000
   -3.4720   -1.8760   19.8050   N 0  0  0  0  0  0  0  0  0  0  0  0
   -3.2090   -0.7670   20.5380   C 0  0  0  0  0  0  0  0  0  0  0  0
   -2.7450   -0.6820   21.8380   C 0  0  0  0  0  0  0  0  0  0  0  0
   -2.6450    0.7020   22.0820   C 0  0  0  0  0  0  0  0  0  0  0  0
   -3.0140    1.4410   21.0360   N 0  0  0  0  0  0  0  0  0  0  0  0
   -3.3480    0.5360   20.0700   N 0  0  0  0  0  0  0  0  0  0  0  0
   -3.8560    0.9580   18.8210   C 0  0  0  0  0  0  0  0  0  0  0  0
   -3.1310    1.5570   17.7900   C 0  0  0  0  0  0  0  0  0  0  0  0
   -3.7900    1.9150   16.6150   C 0  0  0  0  0  0  0  0  0  0  0  0
   -5.1490    1.6710   16.4640   C 0  0  0  0  0  0  0  0  0  0  0  0
   -5.7650    2.0290   15.3300   F 0  0  0  0  0  0  0  0  0  0  0  0
   -5.8820    1.0610   17.4730   C 0  0  0  0  0  0  0  0  0  0  0  0
   -5.2360    0.7080   18.6530   C 0  0  0  0  0  0  0  0  0  0  0  0
   -2.4700   -1.8390   22.6650   C 0  0  0  0  0  0  0  0  0  0  0  0
   -2.8650   -2.9540   22.3220   O 0  0  0  0  0  0  0  0  0  0  0  0
   -1.7400   -1.7020   23.9480   C 0  0  0  0  0  0  0  0  0  0  0  0
   -0.6230   -0.8560   24.0650   C 0  0  0  0  0  0  0  0  0  0  0  0
    0.0410   -0.7510   25.2950   C 0  0  0  0  0  0  0  0  0  0  0  0
   -0.4020   -1.4910   26.3870   C 0  0  0  0  0  0  0  0  0  0  0  0
   -1.5050   -2.3350   26.2710   C 0  0  0  0  0  0  0  0  0  0  0  0
   -1.8710   -3.0090   27.4110   O 0  0  0  0  0  0  0  0  0  0  0  0
   -3.2360   -2.8040   27.8010   C 0  0  0  0  0  0  0  0  0  0  0  0
   -3.7740   -4.1230   28.3590   C 0  0  0  0  0  0  0  0  0  0  0  0
   -3.2380   -4.4370   29.7580   C 0  0  0  0  0  0  0  0  0  0  0  0
   -2.2840   -3.4430   30.2770   N 0  0  0  0  0  0  0  0  0  0  0  0
   -2.7700   -2.0620   30.2230   C 0  0  0  0  0  0  0  0  0  0  0  0
   -3.2870   -1.6700   28.8380   C 0  0  0  0  0  0  0  0  0  0  0  0
   -2.1810   -2.4520   25.0530   C 0  0  0  0  0  0  0  0  0  0  0  0
  1  2  1  0  0  0  0
  2  3  2  0  0  0  0
  2  6  1  0  0  0  0
  3  4  1  0  0  0  0
  3 14  1  0  0  0  0
  4  5  2  0  0  0  0
  5  6  1  0  0  0  0
  6  7  1  0  0  0  0
  7  8  1  0  0  0  0
  7 13  2  0  0  0  0
  8  9  2  0  0  0  0
  9 10  1  0  0  0  0
 10 11  1  0  0  0  0
 10 12  2  0  0  0  0
 12 13  1  0  0  0  0
 14 15  2  0  0  0  0
 14 16  1  0  0  0  0
 16 17  1  0  0  0  0
 16 28  2  0  0  0  0
 17 18  2  0  0  0  0
 18 19  1  0  0  0  0
 19 20  2  0  0  0  0
 20 21  1  0  0  0  0
 20 28  1  0  0  0  0
 21 22  1  0  0  0  0
 22 23  1  0  0  0  0
 22 27  1  0  0  0  0
 23 24  1  0  0  0  0
 24 25  1  0  0  0  0
 25 26  1  0  0  0  0
 26 27  1  0  0  0  0
M  END
>  <InstanceId>
2BAL_PQA_A_401

>  <ChemCompId>
PQA

>  <PdbId>
2BAL

>  <ChainId>
A

>  <ResidueNumber>
401

>  <InsertionCode>


>  <Model>
1

>  <AltIds>


>  <MissingHeavyAtoms>
0

>  <ObservedFormula>
C21 N4 O2 F

>  <Name>
[5-AMINO-1-(4-FLUOROPHENYL)-1H-PYRAZOL-4-YL][3-(PIPERIDIN-4-YLOXY)PHENYL]METHANONE

>  <SystematicName>
[5-amino-1-(4-fluorophenyl)pyrazol-4-yl]-(3-piperidin-4-yloxyphenyl)methanone

>  <Synonyms>


>  <Type>
NON-POLYMER

>  <Formula>
C21 H21 F N4 O2

>  <MolecularWeight>
380.415

>  <ModifiedDate>
2011-06-04

>  <Parent>


>  <OneLetterCode>


>  <SubcomponentList>


>  <AmbiguousFlag>
N

>  <InChI>
InChI=1S/C21H21FN4O2/c22-15-4-6-16(7-5-15)26-21(23)19(13-25-26)20(27)14-2-1-3-18(12-14)28-17-8-10-24-11-9-17/h1-7,12-13,17,24H,8-11,23H2

>  <InChIKey>
QKZZJXRGCHXIAI-UHFFFAOYSA-N

>  <SMILES>
c1cc(cc(c1)OC2CCNCC2)C(=O)c3cnn(c3N)c4ccc(cc4)F

$$$$
