6D56_FVM_B_2001
  RCSB PDB08022004203D
Coordinates from PDB:6D56:B:2001 Model:1 without hydrogens
 34 39  0  0  0  0            999 V2000
   36.4360   29.4800   23.6450   N 0  0  0  0  0  0  0  0  0  0  0  0
   39.2540   31.5840   26.0950   N 0  0  0  0  0  0  0  0  0  0  0  0
   33.0230   28.9860   22.1860   C 0  0  0  0  0  0  0  0  0  0  0  0
   35.6350   29.0700   22.6350   C 0  0  0  0  0  0  0  0  0  0  0  0
   35.5560   29.8490   24.6770   C 0  0  0  0  0  0  0  0  0  0  0  0
   35.8590   30.3650   25.9340   C 0  0  0  0  0  0  0  0  0  0  0  0
   34.8170   30.6170   26.8110   C 0  0  0  0  0  0  0  0  0  0  0  0
   33.1410   29.8920   25.1490   C 0  0  0  0  0  0  0  0  0  0  0  0
   38.1290   30.0140   27.1210   C 0  0  0  0  0  0  0  0  0  0  0  0
   37.9660   31.6780   25.5790   C 0  0  0  0  0  0  0  0  0  0  0  0
   35.5060   27.3200   20.7510   C 0  0  0  0  0  0  0  0  0  0  0  0
   37.4090   25.6530   19.8840   C 0  0  0  0  0  0  0  0  0  0  0  0
   37.4600   27.9370   21.3450   C 0  0  0  0  0  0  0  0  0  0  0  0
   33.5070   31.3900   21.5810   C 0  0  0  0  0  0  0  0  0  0  0  0
   34.0390   33.7950   21.0480   C 0  0  0  0  0  0  0  0  0  0  0  0
   34.2430   29.1720   22.9800   N 0  0  0  0  0  0  0  0  0  0  0  0
   30.8010   31.1760   18.2840   C 0  0  0  0  0  0  0  0  0  0  0  0
   31.7680   31.2110   19.3990   C 0  0  0  0  0  0  0  0  0  0  0  0
   34.2110   29.6430   24.2950   C 0  0  0  0  0  0  0  0  0  0  0  0
   37.2260   30.6680   26.2230   C 0  0  0  0  0  0  0  0  0  0  0  0
   37.8480   28.8800   28.0310   C 0  0  0  0  0  0  0  0  0  0  0  0
   37.5530   32.6890   24.5660   C 0  0  0  0  0  0  0  0  0  0  0  0
   36.9090   27.0810   20.1870   C 0  0  0  0  0  0  0  0  0  0  0  0
   37.2440   27.4880   18.7380   C 0  0  0  0  0  0  0  0  0  0  0  0
   31.9620   30.1020   20.2080   C 0  0  0  0  0  0  0  0  0  0  0  0
   33.3330   32.5100   20.7700   C 0  0  0  0  0  0  0  0  0  0  0  0
   32.4720   32.4000   19.6860   C 0  0  0  0  0  0  0  0  0  0  0  0
   32.8310   30.1920   21.3030   C 0  0  0  0  0  0  0  0  0  0  0  0
   33.5020   30.3530   26.3890   C 0  0  0  0  0  0  0  0  0  0  0  0
   32.3200   33.4350   18.8920   F 0  0  0  0  0  0  0  0  0  0  0  0
   39.3680   30.5890   27.0280   N 0  0  0  0  0  0  0  0  0  0  0  0
   36.0870   28.5890   21.3660   N 0  0  0  0  0  0  0  0  0  0  0  0
   37.7510   26.0900   18.4730   N 0  0  0  0  0  0  0  0  0  0  0  0
   32.2390   30.5300   27.5540  Cl 0  0  0  0  0  0  0  0  0  0  0  0
 17 18  1  0  0  0  0
 33 24  1  0  0  0  0
 33 12  1  0  0  0  0
 24 23  1  0  0  0  0
 30 27  1  0  0  0  0
 18 27  2  0  0  0  0
 18 25  1  0  0  0  0
 27 26  1  0  0  0  0
 12 23  1  0  0  0  0
 23 11  1  0  0  0  0
 23 13  1  0  0  0  0
 25 28  2  0  0  0  0
 11 32  1  0  0  0  0
 26 15  1  0  0  0  0
 26 14  2  0  0  0  0
 28 14  1  0  0  0  0
 28  3  1  0  0  0  0
 13 32  1  0  0  0  0
 32  4  1  0  0  0  0
  3 16  1  0  0  0  0
  4 16  1  0  0  0  0
  4  1  2  0  0  0  0
 16 19  1  0  0  0  0
  1  5  1  0  0  0  0
 19  5  2  0  0  0  0
 19  8  1  0  0  0  0
 22 10  1  0  0  0  0
  5  6  1  0  0  0  0
  8 29  2  0  0  0  0
 10  2  1  0  0  0  0
 10 20  2  0  0  0  0
  6 20  1  0  0  0  0
  6  7  2  0  0  0  0
  2 31  1  0  0  0  0
 20  9  1  0  0  0  0
 29  7  1  0  0  0  0
 29 34  1  0  0  0  0
 31  9  2  0  0  0  0
  9 21  1  0  0  0  0
M  END
>  <InstanceId>
6D56_FVM_B_2001

>  <ChemCompId>
FVM

>  <PdbId>
6D56

>  <ChainId>
B

>  <ResidueNumber>
2001

>  <InsertionCode>


>  <Model>
1

>  <AltIds>


>  <MissingHeavyAtoms>
0

>  <ObservedFormula>
C26 N6 F Cl

>  <Name>
6-chloro-2-(2,6-diazaspiro[3.3]heptan-2-yl)-4-(3,5-dimethyl-1H-pyrazol-4-yl)-1-[(4-fluoro-3,5-dimethylphenyl)methyl]-1H-benzimidazole

>  <SystematicName>
6-chloranyl-2-(2,6-diazaspiro[3.3]heptan-2-yl)-4-(3,5-dimethyl-1~{H}-pyrazol-4-yl)-1-[(4-fluoranyl-3,5-dimethyl-phenyl)methyl]benzimidazole

>  <Synonyms>


>  <Type>
NON-POLYMER

>  <Formula>
C26 H28 Cl F N6

>  <MolecularWeight>
478.992

>  <ModifiedDate>
2018-09-14

>  <Parent>


>  <OneLetterCode>


>  <SubcomponentList>


>  <AmbiguousFlag>
N

>  <InChI>
InChI=1S/C26H28ClFN6/c1-14-5-18(6-15(2)23(14)28)9-34-21-8-19(27)7-20(22-16(3)31-32-17(22)4)24(21)30-25(34)33-12-26(13-33)10-29-11-26/h5-8,29H,9-13H2,1-4H3,(H,31,32)

>  <InChIKey>
WYYRAJGTUGUYGY-UHFFFAOYSA-N

>  <SMILES>
Cc1cc(cc(c1F)C)Cn2c3cc(cc(c3nc2N4CC5(C4)CNC5)c6c([nH]nc6C)C)Cl

$$$$
