2EXM_ZIP_A_400
  RCSB PDB08012016563D
Coordinates from PDB:2EXM:A:400 Model:1 without hydrogens
 15 16  0  0  0  0            999 V2000
   98.5460   97.0330   80.8880   C 0  0  0  0  0  0  0  0  0  0  0  0
   99.1350   98.4420   81.0110   C 0  0  0  0  0  0  0  0  0  0  0  0
   98.4400   99.2800   82.0650   C 0  0  0  0  0  0  0  0  0  0  0  0
   99.7840   99.0100   79.9600   C 0  0  0  0  0  0  0  0  0  0  0  0
  101.2360   98.9240   79.5100   C 0  0  0  0  0  0  0  0  0  0  0  0
  102.3640   99.2620   80.4040   N 0  0  0  0  0  0  0  0  0  0  0  0
  103.4110  100.1920   80.0820   C 0  0  0  0  0  0  0  0  0  0  0  0
  104.7200  100.2370   80.6810   C 0  0  0  0  0  0  0  0  0  0  0  0
  105.3290   99.4630   81.6920   N 0  0  0  0  0  0  0  0  0  0  0  0
  105.6200  101.2160   80.3090   C 0  0  0  0  0  0  0  0  0  0  0  0
  106.7730  101.0650   80.9900   N 0  0  0  0  0  0  0  0  0  0  0  0
  106.5090  100.0380   81.8390   C 0  0  0  0  0  0  0  0  0  0  0  0
  105.2290  102.1550   79.2940   N 0  0  0  0  0  0  0  0  0  0  0  0
  104.0390  102.0050   78.7480   C 0  0  0  0  0  0  0  0  0  0  0  0
  103.1920  101.1030   79.1230   N 0  0  0  0  0  0  0  0  0  0  0  0
  1  2  1  0  0  0  0
  2  3  1  0  0  0  0
  2  4  2  0  0  0  0
  4  5  1  0  0  0  0
  5  6  1  0  0  0  0
  6  7  1  0  0  0  0
  7  8  2  0  0  0  0
  7 15  1  0  0  0  0
  8  9  1  0  0  0  0
  8 10  1  0  0  0  0
  9 12  2  0  0  0  0
 10 11  1  0  0  0  0
 10 13  2  0  0  0  0
 11 12  1  0  0  0  0
 13 14  1  0  0  0  0
 14 15  2  0  0  0  0
M  END
>  <InstanceId>
2EXM_ZIP_A_400

>  <ChemCompId>
ZIP

>  <PdbId>
2EXM

>  <ChainId>
A

>  <ResidueNumber>
400

>  <InsertionCode>


>  <Model>
1

>  <AltIds>


>  <MissingHeavyAtoms>
0

>  <ObservedFormula>
C10 N5

>  <Name>
N-(3-METHYLBUT-2-EN-1-YL)-9H-PURIN-6-AMINE

>  <SystematicName>
N-(3-methylbut-2-enyl)-9H-purin-6-amine

>  <Synonyms>
ISOPENTENYLADENINE

>  <Type>
NON-POLYMER

>  <Formula>
C10 H13 N5

>  <MolecularWeight>
203.244

>  <ModifiedDate>
2011-06-04

>  <Parent>


>  <OneLetterCode>


>  <SubcomponentList>


>  <AmbiguousFlag>
N

>  <InChI>
InChI=1S/C10H13N5/c1-7(2)3-4-11-9-8-10(13-5-12-8)15-6-14-9/h3,5-6H,4H2,1-2H3,(H2,11,12,13,14,15)

>  <InChIKey>
HYVABZIGRDEKCD-UHFFFAOYSA-N

>  <SMILES>
CC(=CCNc1c2c([nH]cn2)ncn1)C

$$$$
