2QWC_DAN_A_800
  RCSB PDB08012017523D
Coordinates from PDB:2QWC:A:800 Model:1 without hydrogens
 20 20  0  0  0  0            999 V2000
   23.5770   19.7040   64.8560   C 0  0  0  0  0  0  0  0  0  0  0  0
   24.2480   18.7040   64.1040   C 0  0  0  0  0  0  0  0  0  0  0  0
   23.5930   17.5840   63.6500   C 0  0  0  0  0  0  0  0  0  0  0  0
   24.2690   16.6160   62.6750   C 0  0  0  0  0  0  0  0  0  0  0  0
   25.8490   16.7350   62.7850   C 0  0  0  0  0  0  0  0  0  0  0  0
   26.2320   18.2040   62.7210   C 0  0  0  0  0  0  0  0  0  0  0  0
   27.7600   18.4130   62.8160   C 0  0  0  0  0  0  0  0  0  0  0  0
   28.1600   19.8920   62.7310   C 0  0  0  0  0  0  0  0  0  0  0  0
   29.6910   20.1650   62.9680   C 0  0  0  0  0  0  0  0  0  0  0  0
   27.1160   14.9180   61.6870   C 0  0  0  0  0  0  0  0  0  0  0  0
   27.5650   14.2040   60.4000   C 0  0  0  0  0  0  0  0  0  0  0  0
   26.3710   16.0140   61.5960   N 0  0  0  0  0  0  0  0  0  0  0  0
   24.2610   20.6920   65.1850   O 0  0  0  0  0  0  0  0  0  0  0  0
   22.3780   19.5990   65.2090   O 0  0  0  0  0  0  0  0  0  0  0  0
   23.8210   15.3410   63.0240   O 0  0  0  0  0  0  0  0  0  0  0  0
   25.6370   18.8680   63.8120   O 0  0  0  0  0  0  0  0  0  0  0  0
   28.1690   17.9140   64.0970   O 0  0  0  0  0  0  0  0  0  0  0  0
   27.8350   20.2490   61.4530   O 0  0  0  0  0  0  0  0  0  0  0  0
   30.3910   19.4290   61.9940   O 0  0  0  0  0  0  0  0  0  0  0  0
   27.5250   14.4910   62.7700   O 0  0  0  0  0  0  0  0  0  0  0  0
  1  2  1  0  0  0  0
  1 13  2  0  0  0  0
  1 14  1  0  0  0  0
  2  3  2  0  0  0  0
  2 16  1  0  0  0  0
  3  4  1  0  0  0  0
  4  5  1  0  0  0  0
  4 15  1  0  0  0  0
  5  6  1  0  0  0  0
  5 12  1  0  0  0  0
  6  7  1  0  0  0  0
  6 16  1  0  0  0  0
  7  8  1  0  0  0  0
  7 17  1  0  0  0  0
  8  9  1  0  0  0  0
  8 18  1  0  0  0  0
  9 19  1  0  0  0  0
 10 11  1  0  0  0  0
 10 12  1  0  0  0  0
 10 20  2  0  0  0  0
M  END
>  <InstanceId>
2QWC_DAN_A_800

>  <ChemCompId>
DAN

>  <PdbId>
2QWC

>  <ChainId>
A

>  <ResidueNumber>
800

>  <InsertionCode>


>  <Model>
1

>  <AltIds>


>  <MissingHeavyAtoms>
0

>  <ObservedFormula>
C11 N O8

>  <Name>
2-DEOXY-2,3-DEHYDRO-N-ACETYL-NEURAMINIC ACID

>  <SystematicName>
(4S,5R,6R)-5-acetamido-4-hydroxy-6-[(1R,2R)-1,2,3-trihydroxypropyl]-5,6-dihydro-4H-pyran-2-carboxylic acid

>  <Synonyms>
Neu5Ac2en

>  <Type>
D-saccharide

>  <Formula>
C11 H17 N O8

>  <MolecularWeight>
291.255

>  <ModifiedDate>
2020-07-17

>  <Parent>


>  <OneLetterCode>


>  <SubcomponentList>


>  <AmbiguousFlag>
N

>  <InChI>
InChI=1S/C11H17NO8/c1-4(14)12-8-5(15)2-7(11(18)19)20-10(8)9(17)6(16)3-13/h2,5-6,8-10,13,15-17H,3H2,1H3,(H,12,14)(H,18,19)/t5-,6+,8+,9+,10+/m0/s1

>  <InChIKey>
JINJZWSZQKHCIP-UFGQHTETSA-N

>  <SMILES>
CC(=O)N[C@@H]1[C@H](C=C(O[C@H]1[C@@H]([C@@H](CO)O)O)C(=O)O)O

$$$$
