3F6E_8PA_X_602
  RCSB PDB08012018593D
Coordinates from PDB:3F6E:X:602 Model:1 without hydrogens
 36 38  0  0  0  0            999 V2000
   64.4320   57.7560  157.5260   C 0  0  0  0  0  0  0  0  0  0  0  0
   63.9260   59.0520  157.4030   C 0  0  0  0  0  0  0  0  0  0  0  0
   64.2370   60.0260  158.3710   C 0  0  0  0  0  0  0  0  0  0  0  0
   65.0040   59.7110  159.4230   N 0  0  0  0  0  0  0  0  0  0  0  0
   65.5210   58.4760  159.5680   C 0  0  0  0  0  0  0  0  0  0  0  0
   65.2530   57.4720  158.6260   C 0  0  0  0  0  0  0  0  0  0  0  0
   65.8230   56.2120  158.7890   C 0  0  0  0  0  0  0  0  0  0  0  0
   65.1030   55.0590  158.9690   C 0  0  0  0  0  0  0  0  0  0  0  0
   65.7620   53.8200  159.1380   C 0  0  0  0  0  0  0  0  0  0  0  0
   65.5950   52.8290  158.1540   O 0  0  0  0  0  0  0  0  0  0  0  0
   66.4820   53.4590  160.4850   C 0  0  0  0  0  0  0  0  0  0  0  0
   65.9630   54.2980  162.0240   S 0  0  0  0  0  0  0  0  0  0  0  0
   66.4580   52.8900  163.0010   C 0  0  0  0  0  0  0  0  0  0  0  0
   66.2640   52.9320  164.4500   C 0  0  0  0  0  0  0  0  0  0  0  0
   67.2580   53.8180  165.2560   C 0  0  0  0  0  0  0  0  0  0  0  0
   66.8430   53.6320  166.6480   O 0  0  0  0  0  0  0  0  0  0  0  0
   67.4140   54.6360  167.7020   P 0  0  0  0  0  0  0  0  0  0  0  0
   67.2470   53.9400  168.9950   O 0  0  0  0  0  0  0  0  0  0  0  0
   68.7840   55.1650  167.4130   O 0  0  0  0  0  0  0  0  0  0  0  0
   66.5800   55.8650  167.6330   O 0  0  0  0  0  0  0  0  0  0  0  0
   64.8450   56.0590  167.7980   P 0  0  0  0  0  0  0  0  0  0  0  0
   64.2240   55.7100  166.4380   O 0  0  0  0  0  0  0  0  0  0  0  0
   64.4580   55.0980  168.9060   O 0  0  0  0  0  0  0  0  0  0  0  0
   64.6480   57.4570  168.1550   O 0  0  0  0  0  0  0  0  0  0  0  0
   66.8630   51.8840  162.1600   C 0  0  0  0  0  0  0  0  0  0  0  0
   67.3700   50.5200  162.7110   C 0  0  0  0  0  0  0  0  0  0  0  0
   66.8900   52.1940  160.8490   N 0  3  0  0  0  0  0  0  0  0  0  0
   67.4540   51.2040  159.8520   C 0  0  0  0  0  0  0  0  0  0  0  0
   69.0080   51.2820  159.6610   C 0  0  0  0  0  0  0  0  0  0  0  0
   69.7020   50.1070  159.8180   C 0  0  0  0  0  0  0  0  0  0  0  0
   71.0470   50.0890  159.6520   N 0  0  0  0  0  0  0  0  0  0  0  0
   71.5800   51.2490  159.2670   C 0  0  0  0  0  0  0  0  0  0  0  0
   73.1190   51.1910  159.0170   C 0  0  0  0  0  0  0  0  0  0  0  0
   70.9520   52.4060  159.0330   N 0  0  0  0  0  0  0  0  0  0  0  0
   69.6030   52.4590  159.1820   C 0  0  0  0  0  0  0  0  0  0  0  0
   69.0630   53.5930  158.9120   N 0  0  0  0  0  0  0  0  0  0  0  0
  1  6  1  0  0  0  0
  2  1  2  0  0  0  0
  2  3  1  0  0  0  0
  3  4  2  0  0  0  0
  4  5  1  0  0  0  0
  6  5  2  0  0  0  0
  6  7  1  0  0  0  0
  8  7  2  0  0  0  0
  8  9  1  0  0  0  0
  9 11  1  0  0  0  0
 10  9  1  0  0  0  0
 11 27  2  0  0  0  0
 11 12  1  0  0  0  0
 12 13  1  0  0  0  0
 13 14  1  0  0  0  0
 14 15  1  0  0  0  0
 15 16  1  0  0  0  0
 16 17  1  0  0  0  0
 17 18  1  0  0  0  0
 19 17  2  0  0  0  0
 20 17  1  0  0  0  0
 20 21  1  0  0  0  0
 21 24  1  0  0  0  0
 21 23  1  0  0  0  0
 22 21  2  0  0  0  0
 25 13  2  0  0  0  0
 25 26  1  0  0  0  0
 27 25  1  0  0  0  0
 28 27  1  0  0  0  0
 29 28  1  0  0  0  0
 29 30  1  0  0  0  0
 31 30  2  0  0  0  0
 32 31  1  0  0  0  0
 33 32  1  0  0  0  0
 34 32  2  0  0  0  0
 34 35  1  0  0  0  0
 35 29  2  0  0  0  0
 36 35  1  0  0  0  0
M  CHG  1  27   1
M  END
>  <InstanceId>
3F6E_8PA_X_602

>  <ChemCompId>
8PA

>  <PdbId>
3F6E

>  <ChainId>
X

>  <ResidueNumber>
602

>  <InsertionCode>


>  <Model>
1

>  <AltIds>


>  <MissingHeavyAtoms>
0

>  <ObservedFormula>
C20 N5 O8 P2 S

>  <Name>
3-[(4-amino-2-methylpyrimidin-5-yl)methyl]-5-(2-{[(S)-hydroxy(phosphonooxy)phosphoryl]oxy}ethyl)-2-[(1S,2E)-1-hydroxy-3-pyridin-3-ylprop-2-en-1-yl]-4-methyl-1,3-thiazol-3-ium

>  <SystematicName>
2-[3-[(4-amino-2-methyl-pyrimidin-5-yl)methyl]-2-[(E,1S)-1-hydroxy-3-pyridin-3-yl-prop-2-enyl]-4-methyl-1,3-thiazol-3-ium-5-yl]ethyl phosphono hydrogen phosphate

>  <Synonyms>


>  <Type>
NON-POLYMER

>  <Formula>
C20 H26 N5 O8 P2 S

>  <MolecularWeight>
558.462

>  <ModifiedDate>
2011-06-04

>  <Parent>


>  <OneLetterCode>


>  <SubcomponentList>


>  <AmbiguousFlag>
N

>  <InChI>
InChI=1S/C20H25N5O8P2S/c1-13-18(7-9-32-35(30,31)33-34(27,28)29)36-20(17(26)6-5-15-4-3-8-22-10-15)25(13)12-16-11-23-14(2)24-19(16)21/h3-6,8,10-11,17,26H,7,9,12H2,1-2H3,(H4-,21,23,24,27,28,29,30,31)/p+1/b6-5+/t17-/m0/s1

>  <InChIKey>
HUCLASQGRJZNFE-RTRPANQVSA-O

>  <SMILES>
Cc1c(sc([n+]1Cc2cnc(nc2N)C)[C@H](\C=C\c3cccnc3)O)CCO[P@](=O)(O)OP(=O)(O)O

$$$$
