3UPK_UD1_A_427
  RCSB PDB08012020423D
Coordinates from PDB:3UPK:A:427 Model:1 without hydrogens
 39 41  0  0  0  0            999 V2000
   86.0700    1.0000  124.1080   C 0  0  0  0  0  0  0  0  0  0  0  0
   85.9740   -0.0700  122.9490   C 0  0  0  0  0  0  0  0  0  0  0  0
   84.6350   -0.8750  123.0440   C 0  0  0  0  0  0  0  0  0  0  0  0
   84.6280   -1.5960  124.4090   C 0  0  0  0  0  0  0  0  0  0  0  0
   84.6860   -0.4830  125.5840   C 0  0  0  0  0  0  0  0  0  0  0  0
   84.7080   -1.1030  126.9920   C 0  0  0  0  0  0  0  0  0  0  0  0
   87.2290    1.0760  121.0780   C 0  0  0  0  0  0  0  0  0  0  0  0
   87.1370    1.8140  119.7570   C 0  0  0  0  0  0  0  0  0  0  0  0
   86.0740    0.6730  121.6430   N 0  0  0  0  0  0  0  0  0  0  0  0
   85.0430    1.9140  123.7780   O 0  0  0  0  0  0  0  0  0  0  0  0
   84.6090   -1.8320  121.9860   O 0  0  0  0  0  0  0  0  0  0  0  0
   83.4630   -2.3320  124.5890   O 0  0  0  0  0  0  0  0  0  0  0  0
   85.9420    0.3410  125.3960   O 0  0  0  0  0  0  0  0  0  0  0  0
   85.8450   -1.9560  127.0740   O 0  0  0  0  0  0  0  0  0  0  0  0
   88.3070    0.8500  121.6110   O 0  0  0  0  0  0  0  0  0  0  0  0
   81.5500    7.1780  129.1420   N 0  0  0  0  0  0  0  0  0  0  0  0
   80.9220    8.4590  129.4980   C 0  0  0  0  0  0  0  0  0  0  0  0
   81.5760    9.6100  128.9700   N 0  0  0  0  0  0  0  0  0  0  0  0
   82.7810    9.6120  128.1320   C 0  0  0  0  0  0  0  0  0  0  0  0
   83.3820    8.2890  127.7980   C 0  0  0  0  0  0  0  0  0  0  0  0
   82.7610    7.1620  128.2990   C 0  0  0  0  0  0  0  0  0  0  0  0
   79.9080    8.5830  130.1930   O 0  0  0  0  0  0  0  0  0  0  0  0
   83.2390   10.6780  127.7430   O 0  0  0  0  0  0  0  0  0  0  0  0
   80.9210    5.9070  129.6490   C 0  0  0  0  0  0  0  0  0  0  0  0
   80.4040    5.0650  128.4590   C 0  0  0  0  0  0  0  0  0  0  0  0
   79.1050    5.4970  128.1270   O 0  0  0  0  0  0  0  0  0  0  0  0
   80.3870    3.6640  129.1070   C 0  0  0  0  0  0  0  0  0  0  0  0
   81.6270    3.7480  130.0560   C 0  0  0  0  0  0  0  0  0  0  0  0
   81.8640    5.1290  130.3290   O 0  0  0  0  0  0  0  0  0  0  0  0
   79.2330    3.4430  129.9570   O 0  0  0  0  0  0  0  0  0  0  0  0
   82.9060    3.1370  129.3980   C 0  0  0  0  0  0  0  0  0  0  0  0
   83.1680    3.6360  128.0750   O 0  0  0  0  0  0  0  0  0  0  0  0
   84.6600    3.6620  127.4820   P 0  0  0  0  0  0  0  0  0  0  0  0
   85.5730    2.9090  128.3250   O 0  0  0  0  0  0  0  0  0  0  0  0
   85.0380    5.0470  127.1370   O 0  0  0  0  0  0  0  0  0  0  0  0
   84.3620    2.9610  126.1130   O 0  0  0  0  0  0  0  0  0  0  0  0
   84.7330    3.2490  124.5910   P 0  0  0  0  0  0  0  0  0  0  0  0
   85.9920    3.9430  124.6200   O 0  0  0  0  0  0  0  0  0  0  0  0
   83.6490    4.0030  124.0090   O 0  0  0  0  0  0  0  0  0  0  0  0
  1  2  1  0  0  0  0
  1 10  1  0  0  0  0
  1 13  1  0  0  0  0
  2  3  1  0  0  0  0
  2  9  1  0  0  0  0
  3  4  1  0  0  0  0
  3 11  1  0  0  0  0
  4  5  1  0  0  0  0
  4 12  1  0  0  0  0
  5  6  1  0  0  0  0
  5 13  1  0  0  0  0
  6 14  1  0  0  0  0
  7  8  1  0  0  0  0
  7  9  1  0  0  0  0
  7 15  2  0  0  0  0
 10 37  1  0  0  0  0
 16 17  1  0  0  0  0
 16 21  1  0  0  0  0
 16 24  1  0  0  0  0
 17 18  1  0  0  0  0
 17 22  2  0  0  0  0
 18 19  1  0  0  0  0
 19 20  1  0  0  0  0
 19 23  2  0  0  0  0
 20 21  2  0  0  0  0
 24 25  1  0  0  0  0
 24 29  1  0  0  0  0
 25 26  1  0  0  0  0
 25 27  1  0  0  0  0
 27 28  1  0  0  0  0
 27 30  1  0  0  0  0
 28 29  1  0  0  0  0
 28 31  1  0  0  0  0
 31 32  1  0  0  0  0
 32 33  1  0  0  0  0
 33 34  2  0  0  0  0
 33 35  1  0  0  0  0
 33 36  1  0  0  0  0
 36 37  1  0  0  0  0
 37 38  2  0  0  0  0
 37 39  1  0  0  0  0
M  END
>  <InstanceId>
3UPK_UD1_A_427

>  <ChemCompId>
UD1

>  <PdbId>
3UPK

>  <ChainId>
A

>  <ResidueNumber>
427

>  <InsertionCode>


>  <Model>
1

>  <AltIds>


>  <MissingHeavyAtoms>
0

>  <ObservedFormula>
C17 N3 O17 P2

>  <Name>
URIDINE-DIPHOSPHATE-N-ACETYLGLUCOSAMINE

>  <SystematicName>
[[(2R,3R,4R,5S,6R)-3-acetamido-4,5-dihydroxy-6-(hydroxymethyl)oxan-2-yl]oxy-hydroxy-phosphoryl] [(2R,3S,4R,5R)-5-(2,4-dioxopyrimidin-1-yl)-3,4-dihydroxy-oxolan-2-yl]methyl hydrogen phosphate

>  <Synonyms>


>  <Type>
NON-POLYMER

>  <Formula>
C17 H27 N3 O17 P2

>  <MolecularWeight>
607.354

>  <ModifiedDate>
2011-06-04

>  <Parent>


>  <OneLetterCode>


>  <SubcomponentList>


>  <AmbiguousFlag>
N

>  <InChI>
InChI=1S/C17H27N3O17P2/c1-6(22)18-10-13(26)11(24)7(4-21)35-16(10)36-39(31,32)37-38(29,30)33-5-8-12(25)14(27)15(34-8)20-3-2-9(23)19-17(20)28/h2-3,7-8,10-16,21,24-27H,4-5H2,1H3,(H,18,22)(H,29,30)(H,31,32)(H,19,23,28)/t7-,8-,10-,11-,12-,13-,14-,15-,16-/m1/s1

>  <InChIKey>
LFTYTUAZOPRMMI-CFRASDGPSA-N

>  <SMILES>
CC(=O)N[C@@H]1[C@H]([C@@H]([C@H](O[C@@H]1O[P@@](=O)(O)O[P@@](=O)(O)OC[C@@H]2[C@H]([C@H]([C@@H](O2)N3C=CC(=O)NC3=O)O)O)CO)O)O

$$$$
