5WCM_4NZ_A_307
  RCSB PDB08022003293D
Coordinates from PDB:5WCM:A:307 Model:1 without hydrogens
 13 13  0  0  0  0            999 V2000
   40.3450   26.7240   56.0710   S 0  0  0  0  0  0  0  0  0  0  0  0
   43.8850   24.8240   54.0770   C 0  0  0  0  0  0  0  0  0  0  0  0
   40.3440   28.2580   55.9660   N 0  0  0  0  0  0  0  0  0  0  0  0
   39.1880   26.2440   55.3920   O 0  0  0  0  0  0  0  0  0  0  0  0
   43.8720   26.1990   54.2130   C 0  0  0  0  0  0  0  0  0  0  0  0
   40.4610   26.3970   57.4540   O 0  0  0  0  0  0  0  0  0  0  0  0
   42.7850   26.7970   54.8300   C 0  0  0  0  0  0  0  0  0  0  0  0
   41.7390   26.0090   55.2730   C 0  0  0  0  0  0  0  0  0  0  0  0
   41.7760   24.6300   55.1470   C 0  0  0  0  0  0  0  0  0  0  0  0
   42.8670   24.0290   54.5570   C 0  0  0  0  0  0  0  0  0  0  0  0
   44.9520   24.1980   53.2890   N 0  3  0  0  0  0  0  0  0  0  0  0
   45.7610   24.9180   52.7340   O 0  0  0  0  0  0  0  0  0  0  0  0
   44.9880   22.9770   53.2330   O 0  5  0  0  0  0  0  0  0  0  0  0
  1  3  1  0  0  0  0
  1  4  2  0  0  0  0
  1  6  2  0  0  0  0
  1  8  1  0  0  0  0
  2  5  2  0  0  0  0
  2 10  1  0  0  0  0
  2 11  1  0  0  0  0
  5  7  1  0  0  0  0
  7  8  2  0  0  0  0
  8  9  1  0  0  0  0
  9 10  2  0  0  0  0
 11 12  2  0  0  0  0
 11 13  1  0  0  0  0
M  CHG  2  11   1  13  -1
M  END
>  <InstanceId>
5WCM_4NZ_A_307

>  <ChemCompId>
4NZ

>  <PdbId>
5WCM

>  <ChainId>
A

>  <ResidueNumber>
307

>  <InsertionCode>


>  <Model>
1

>  <AltIds>


>  <MissingHeavyAtoms>
0

>  <ObservedFormula>
C6 N2 O4 S

>  <Name>
4-nitrobenzenesulfonamide

>  <SystematicName>
4-nitrobenzenesulfonamide

>  <Synonyms>


>  <Type>
NON-POLYMER

>  <Formula>
C6 H6 N2 O4 S

>  <MolecularWeight>
202.188

>  <ModifiedDate>
2011-06-04

>  <Parent>


>  <OneLetterCode>


>  <SubcomponentList>


>  <AmbiguousFlag>
N

>  <InChI>
InChI=1S/C6H6N2O4S/c7-13(11,12)6-3-1-5(2-4-6)8(9)10/h1-4H,(H2,7,11,12)

>  <InChIKey>
QWKKYJLAUWFPDB-UHFFFAOYSA-N

>  <SMILES>
c1cc(ccc1[N+](=O)[O-])S(=O)(=O)N

$$$$
