2QNP_QN2_A_2501
  RCSB PDB08012017513D
Coordinates from PDB:2QNP:A:2501 Model:1 without hydrogens
 41 45  0  0  0  0            999 V2000
   15.2980   19.1990   -1.7390   C 0  0  0  0  0  0  0  0  0  0  0  0
   16.3380   19.6680   -2.5470   C 0  0  0  0  0  0  0  0  0  0  0  0
   16.1210   19.9560   -3.8860   C 0  0  0  0  0  0  0  0  0  0  0  0
   14.8980   19.7400   -4.5270   C 0  0  0  0  0  0  0  0  0  0  0  0
   13.8700   19.2120   -3.7140   C 0  0  0  0  0  0  0  0  0  0  0  0
   14.0730   18.9590   -2.3690   C 0  0  0  0  0  0  0  0  0  0  0  0
   17.4690   20.6260   -4.8430   S 0  0  0  0  0  0  0  0  0  0  0  0
   17.1950   22.3030   -4.5200   N 0  0  0  0  0  0  0  0  0  0  0  0
   17.6520   22.9060   -3.2900   C 0  0  0  0  0  0  0  0  0  0  0  0
   19.0420   23.4980   -3.1970   C 0  0  0  0  0  0  0  0  0  0  0  0
   19.2430   24.4300   -2.1670   C 0  0  0  0  0  0  0  0  0  0  0  0
   20.4790   25.0270   -1.9590   C 0  0  0  0  0  0  0  0  0  0  0  0
   21.5030   24.7170   -2.8430   C 0  0  0  0  0  0  0  0  0  0  0  0
   23.3480   25.5540   -2.5420   I 0  0  0  0  0  0  0  0  0  0  0  0
   21.3250   23.8270   -3.8880   C 0  0  0  0  0  0  0  0  0  0  0  0
   20.0870   23.2010   -4.0600   C 0  0  0  0  0  0  0  0  0  0  0  0
   16.4020   23.0880   -5.4550   C 0  0  0  0  0  0  0  0  0  0  0  0
   16.9870   24.4730   -5.8650   C 0  0  0  0  0  0  0  0  0  0  0  0
   16.9530   24.6100   -7.3240   N 0  0  0  0  0  0  0  0  0  0  0  0
   18.3990   24.4210   -8.1760   S 0  0  0  0  0  0  0  0  0  0  0  0
   19.1390   23.3670   -7.4750   O 0  0  0  0  0  0  0  0  0  0  0  0
   19.4050   25.8510   -8.2430   C 0  0  0  0  0  0  0  0  0  0  0  0
   20.7360   25.7180   -7.7900   C 0  0  0  0  0  0  0  0  0  0  0  0
   21.5910   26.8250   -7.8290   C 0  0  0  0  0  0  0  0  0  0  0  0
   21.1310   28.0640   -8.2980   C 0  0  0  0  0  0  0  0  0  0  0  0
   19.8130   28.2030   -8.7580   C 0  0  0  0  0  0  0  0  0  0  0  0
   18.9830   27.0750   -8.7480   C 0  0  0  0  0  0  0  0  0  0  0  0
   18.0870   24.1310   -9.5870   O 0  0  0  0  0  0  0  0  0  0  0  0
   15.6970   24.8170   -8.0700   C 0  0  0  0  0  0  0  0  0  0  0  0
   14.9150   23.5050   -8.3500   C 0  0  0  0  0  0  0  0  0  0  0  0
   13.5870   23.3820   -7.9110   C 0  0  0  0  0  0  0  0  0  0  0  0
   12.8270   22.2260   -8.1390   C 0  0  0  0  0  0  0  0  0  0  0  0
   13.4230   21.1660   -8.8270   C 0  0  0  0  0  0  0  0  0  0  0  0
   12.4060   19.4040   -9.2050   I 0  0  0  0  0  0  0  0  0  0  0  0
   14.7510   21.2650   -9.2470   C 0  0  0  0  0  0  0  0  0  0  0  0
   15.4930   22.4190   -9.0300   C 0  0  0  0  0  0  0  0  0  0  0  0
   16.1870   25.4370   -4.9770   C 0  0  0  0  0  0  0  0  0  0  0  0
   14.8400   24.8350   -4.8270   N 0  0  0  0  0  0  0  0  0  0  0  0
   15.0200   23.3860   -4.7830   C 0  0  0  0  0  0  0  0  0  0  0  0
   18.6690   20.2080   -4.1580   O 0  0  0  0  0  0  0  0  0  0  0  0
   17.2300   20.3500   -6.2270   O 0  0  0  0  0  0  0  0  0  0  0  0
 28 20  2  0  0  0  0
 35 36  2  0  0  0  0
 35 33  1  0  0  0  0
 34 33  1  0  0  0  0
 36 30  1  0  0  0  0
 33 32  2  0  0  0  0
 26 27  2  0  0  0  0
 26 25  1  0  0  0  0
 27 22  1  0  0  0  0
 30 29  1  0  0  0  0
 30 31  2  0  0  0  0
 25 24  2  0  0  0  0
 22 20  1  0  0  0  0
 22 23  2  0  0  0  0
 20 21  2  0  0  0  0
 20 19  1  0  0  0  0
 32 31  1  0  0  0  0
 29 19  1  0  0  0  0
 24 23  1  0  0  0  0
 19 18  1  0  0  0  0
 41  7  2  0  0  0  0
 18 17  1  0  0  0  0
 18 37  1  0  0  0  0
 17 39  1  0  0  0  0
 17  8  1  0  0  0  0
 37 38  1  0  0  0  0
  7  8  1  0  0  0  0
  7 40  2  0  0  0  0
  7  3  1  0  0  0  0
 38 39  1  0  0  0  0
  4  3  2  0  0  0  0
  4  5  1  0  0  0  0
  8  9  1  0  0  0  0
 16 15  2  0  0  0  0
 16 10  1  0  0  0  0
 15 13  1  0  0  0  0
  3  2  1  0  0  0  0
  5  6  2  0  0  0  0
  9 10  1  0  0  0  0
 10 11  2  0  0  0  0
 13 14  1  0  0  0  0
 13 12  2  0  0  0  0
  2  1  2  0  0  0  0
  6  1  1  0  0  0  0
 11 12  1  0  0  0  0
M  END
>  <InstanceId>
2QNP_QN2_A_2501

>  <ChemCompId>
QN2

>  <PdbId>
2QNP

>  <ChainId>
A

>  <ResidueNumber>
2501

>  <InsertionCode>


>  <Model>
1

>  <AltIds>


>  <MissingHeavyAtoms>
0

>  <ObservedFormula>
C30 N3 O4 S2 I2

>  <Name>
N,N'-(3S,4S)-pyrrolidine-3,4-diylbis[N-(4-iodobenzyl)benzenesulfonamide]

>  <SystematicName>
N-[(4-iodophenyl)methyl]-N-[(3S,4S)-4-[(4-iodophenyl)methyl-(phenylsulfonyl)amino]pyrrolidin-3-yl]benzenesulfonamide

>  <Synonyms>


>  <Type>
NON-POLYMER

>  <Formula>
C30 H29 I2 N3 O4 S2

>  <MolecularWeight>
813.508

>  <ModifiedDate>
2011-06-04

>  <Parent>


>  <OneLetterCode>


>  <SubcomponentList>


>  <AmbiguousFlag>


>  <InChI>
InChI=1S/C30H29I2N3O4S2/c31-25-15-11-23(12-16-25)21-34(40(36,37)27-7-3-1-4-8-27)29-19-33-20-30(29)35(22-24-13-17-26(32)18-14-24)41(38,39)28-9-5-2-6-10-28/h1-18,29-30,33H,19-22H2/t29-,30-/m0/s1

>  <InChIKey>
ALNICVDMFYPVLU-KYJUHHDHSA-N

>  <SMILES>
c1ccc(cc1)S(=O)(=O)N(Cc2ccc(cc2)I)[C@H]3CNC[C@@H]3N(Cc4ccc(cc4)I)S(=O)(=O)c5ccccc5

$$$$
