3LJZ_LA3_A_801
  RCSB PDB08012019423D
Coordinates from PDB:3LJZ:A:801 Model:1 without hydrogens
 35 39  0  0  0  0            999 V2000
   74.1930   89.0030   45.7660   C 0  0  0  0  0  0  0  0  0  0  0  0
   72.4240   89.3650   47.8260   C 0  0  0  0  0  0  0  0  0  0  0  0
   73.5830   90.2300   45.9040   C 0  0  0  0  0  0  0  0  0  0  0  0
   73.9220   87.9700   46.6350   C 0  0  0  0  0  0  0  0  0  0  0  0
   73.0310   88.1380   47.6830   C 0  0  0  0  0  0  0  0  0  0  0  0
   72.6960   90.3930   46.9520   C 0  0  0  0  0  0  0  0  0  0  0  0
   73.8710   91.3110   44.9740   C 0  0  0  0  0  0  0  0  0  0  0  0
   72.6810   87.0450   48.6570   C 0  0  0  0  0  0  0  0  0  0  0  0
   74.5100   93.3180   43.1930   C 0  0  0  0  0  0  0  0  0  0  0  0
   73.2750   92.5540   45.1010   C 0  0  0  0  0  0  0  0  0  0  0  0
   74.7780   91.1140   43.9420   C 0  0  0  0  0  0  0  0  0  0  0  0
   75.1140   92.1000   43.0320   C 0  0  0  0  0  0  0  0  0  0  0  0
   73.6130   93.5370   44.1970   C 0  0  0  0  0  0  0  0  0  0  0  0
   73.1170   94.8180   44.1800   O 0  0  0  0  0  0  0  0  0  0  0  0
   74.7100   94.4180   42.4010   O 0  0  0  0  0  0  0  0  0  0  0  0
   73.8400   95.3670   43.0520   C 0  0  0  0  0  0  0  0  0  0  0  0
   73.7200   85.9510   48.8380   C 0  0  0  0  0  0  0  0  0  0  0  0
   74.6310   86.3160   49.9670   C 0  0  0  0  0  0  0  0  0  0  0  0
   73.0580   84.6560   49.2650   C 0  0  0  0  0  0  0  0  0  0  0  0
   72.3880   84.0500   48.0840   C 0  0  0  0  0  0  0  0  0  0  0  0
   72.9990   83.7440   47.0760   O 0  0  0  0  0  0  0  0  0  0  0  0
   71.0360   83.8940   48.2760   N 0  0  0  0  0  0  0  0  0  0  0  0
   70.3290   84.1230   47.0710   O 0  0  0  0  0  0  0  0  0  0  0  0
   74.2270   86.4080   51.1190   O 0  0  0  0  0  0  0  0  0  0  0  0
   75.9240   86.5230   49.5530   N 0  0  0  0  0  0  0  0  0  0  0  0
   76.9970   86.4600   50.5300   C 0  0  0  0  0  0  0  0  0  0  0  0
   78.2800   85.8540   50.0690   C 0  0  0  0  0  0  0  0  0  0  0  0
   77.5030   87.8070   51.0090   C 0  0  0  0  0  0  0  0  0  0  0  0
   77.6770   88.6330   49.8770   O 0  0  0  0  0  0  0  0  0  0  0  0
   78.9070   87.6000   51.5300   C 0  0  0  0  0  0  0  0  0  0  0  0
   80.8390   85.0520   49.5100   C 0  0  0  0  0  0  0  0  0  0  0  0
   78.4640   84.7930   49.2060   C 0  0  0  0  0  0  0  0  0  0  0  0
   79.3440   86.4980   50.6390   C 0  0  0  0  0  0  0  0  0  0  0  0
   80.6410   86.1170   50.3700   C 0  0  0  0  0  0  0  0  0  0  0  0
   79.7620   84.4010   48.9360   C 0  0  0  0  0  0  0  0  0  0  0  0
  4  1  2  0  0  0  0
  3  1  1  0  0  0  0
  2  5  2  0  0  0  0
  2  6  1  0  0  0  0
  6  3  2  0  0  0  0
  3  7  1  0  0  0  0
  5  4  1  0  0  0  0
  8  5  1  0  0  0  0
 10  7  2  0  0  0  0
  7 11  1  0  0  0  0
 17  8  1  0  0  0  0
 13  9  2  0  0  0  0
  9 12  1  0  0  0  0
  9 15  1  0  0  0  0
 10 13  1  0  0  0  0
 11 12  2  0  0  0  0
 13 14  1  0  0  0  0
 14 16  1  0  0  0  0
 16 15  1  0  0  0  0
 18 17  1  0  0  0  0
 19 17  1  0  0  0  0
 24 18  2  0  0  0  0
 18 25  1  0  0  0  0
 19 20  1  0  0  0  0
 22 20  1  0  0  0  0
 20 21  2  0  0  0  0
 22 23  1  0  0  0  0
 26 25  1  0  0  0  0
 27 26  1  0  0  0  0
 26 28  1  0  0  0  0
 33 27  2  0  0  0  0
 32 27  1  0  0  0  0
 30 28  1  0  0  0  0
 28 29  1  0  0  0  0
 33 30  1  0  0  0  0
 31 34  2  0  0  0  0
 31 35  1  0  0  0  0
 35 32  2  0  0  0  0
 34 33  1  0  0  0  0
M  END
>  <InstanceId>
3LJZ_LA3_A_801

>  <ChemCompId>
LA3

>  <PdbId>
3LJZ

>  <ChainId>
A

>  <ResidueNumber>
801

>  <InsertionCode>


>  <Model>
1

>  <AltIds>


>  <MissingHeavyAtoms>
0

>  <ObservedFormula>
C27 N2 O6

>  <Name>
(2R)-2-[4-(1,3-benzodioxol-5-yl)benzyl]-N~4~-hydroxy-N~1~-[(1S,2R)-2-hydroxy-2,3-dihydro-1H-inden-1-yl]butanediamide

>  <SystematicName>
(2R)-2-[[4-(1,3-benzodioxol-5-yl)phenyl]methyl]-N'-hydroxy-N-[(1S,2R)-2-hydroxy-2,3-dihydro-1H-inden-1-yl]butanediamide

>  <Synonyms>
(R)-2-(4-(benzo[d][1,3]dioxol-5-yl)benzyl)-N4-hydroxy-N1-((1S,2R)-2-hydroxy-2,3-dihydro-1H-inden-1-yl) succinamide

>  <Type>
NON-POLYMER

>  <Formula>
C27 H26 N2 O6

>  <MolecularWeight>
474.505

>  <ModifiedDate>
2011-06-04

>  <Parent>


>  <OneLetterCode>


>  <SubcomponentList>


>  <AmbiguousFlag>
N

>  <InChI>
InChI=1S/C27H26N2O6/c30-22-12-19-3-1-2-4-21(19)26(22)28-27(32)20(14-25(31)29-33)11-16-5-7-17(8-6-16)18-9-10-23-24(13-18)35-15-34-23/h1-10,13,20,22,26,30,33H,11-12,14-15H2,(H,28,32)(H,29,31)/t20-,22-,26+/m1/s1

>  <InChIKey>
MJTVUROZTDIMFT-MZEQIWSPSA-N

>  <SMILES>
c1ccc2c(c1)C[C@H]([C@H]2NC(=O)[C@H](Cc3ccc(cc3)c4ccc5c(c4)OCO5)CC(=O)NO)O

$$$$
