6CWN_6LA_A_301
  RCSB PDB08022004183D
Coordinates from PDB:6CWN:A:301 Model:1 without hydrogens
 21 22  0  0  0  0            999 V2000
  -21.1660  -12.4000   17.3760   C 0  0  0  0  0  0  0  0  0  0  0  0
  -20.6950  -12.3040   15.9290   C 0  0  0  0  0  0  0  0  0  0  0  0
  -21.4600  -12.5720   15.0170   O 0  0  0  0  0  0  0  0  0  0  0  0
  -19.4260  -12.0030   15.7750   N 0  0  0  0  0  0  0  0  0  0  0  0
  -18.8920  -11.8790   14.4590   C 0  0  0  0  0  0  0  0  0  0  0  0
  -18.4550  -10.4470   14.1450   C 0  0  0  0  0  0  0  0  0  0  0  0
  -19.4860   -9.4860   14.2620   O 0  0  0  0  0  0  0  0  0  0  0  0
  -17.2990  -10.0760   15.0920   C 0  0  0  0  0  0  0  0  0  0  0  0
  -16.7360   -8.8060   14.7190   O 0  0  0  0  0  0  0  0  0  0  0  0
  -15.6940   -8.3710   15.6100   C 0  0  0  0  0  0  0  0  0  0  0  0
  -15.1280   -7.0730   15.0280   C 0  0  0  0  0  0  0  0  0  0  0  0
  -16.3120   -8.0960   17.0290   C 0  0  0  0  0  0  0  0  0  0  0  0
  -17.4000   -7.4550   17.0270   O 0  0  0  0  0  0  0  0  0  0  0  0
  -15.6430   -8.4130   18.0230   O 0  0  0  0  0  0  0  0  0  0  0  0
  -14.6900   -9.3540   15.6550   O 0  0  0  0  0  0  0  0  0  0  0  0
  -15.0540  -10.6910   15.9370   C 0  0  0  0  0  0  0  0  0  0  0  0
  -16.2370  -11.0710   14.9790   C 0  0  0  0  0  0  0  0  0  0  0  0
  -16.6710  -12.3740   15.2860   O 0  0  0  0  0  0  0  0  0  0  0  0
  -17.6630  -12.7590   14.3410   C 0  0  0  0  0  0  0  0  0  0  0  0
  -18.0110  -14.0690   14.5520   O 0  0  0  0  0  0  0  0  0  0  0  0
  -17.0090  -15.0290   14.2690   C 0  0  0  0  0  0  0  0  0  0  0  0
 11 10  1  0  0  0  0
 13 12  2  0  0  0  0
 15 10  1  0  0  0  0
 15 16  1  0  0  0  0
 10 12  1  0  0  0  0
 10  9  1  0  0  0  0
 12 14  1  0  0  0  0
 16 17  1  0  0  0  0
  9  8  1  0  0  0  0
 17  8  1  0  0  0  0
 17 18  1  0  0  0  0
  8  6  1  0  0  0  0
 18 19  1  0  0  0  0
  6  7  1  0  0  0  0
  6  5  1  0  0  0  0
 19  5  1  0  0  0  0
 19 20  1  0  0  0  0
  5  4  1  0  0  0  0
  4  2  1  0  0  0  0
 20 21  1  0  0  0  0
  2  1  1  0  0  0  0
  2  3  2  0  0  0  0
M  END
>  <InstanceId>
6CWN_6LA_A_301

>  <ChemCompId>
6LA

>  <PdbId>
6CWN

>  <ChainId>
A

>  <ResidueNumber>
301

>  <InsertionCode>


>  <Model>
1

>  <AltIds>


>  <MissingHeavyAtoms>
0

>  <ObservedFormula>
C12 N O8

>  <Name>
methyl 2-(acetylamino)-4,6-O-[(1S)-1-carboxyethylidene]-2-deoxy-beta-D-mannopyranoside

>  <SystematicName>
(2~{S},4~{a}~{R},6~{R},7~{S},8~{R},8~{a}~{S})-7-acetamido-6-methoxy-2-methyl-8-oxidanyl-4,4~{a},6,7,8,8~{a}-hexahydropyrano[3,2-d][1,3]dioxine-2-carboxylic acid

>  <Synonyms>


>  <Type>
D-saccharide

>  <Formula>
C12 H19 N O8

>  <MolecularWeight>
305.281

>  <ModifiedDate>
2018-08-10

>  <Parent>


>  <OneLetterCode>


>  <SubcomponentList>


>  <AmbiguousFlag>
N

>  <InChI>
InChI=1S/C12H19NO8/c1-5(14)13-7-8(15)9-6(20-10(7)18-3)4-19-12(2,21-9)11(16)17/h6-10,15H,4H2,1-3H3,(H,13,14)(H,16,17)/t6-,7+,8-,9-,10-,12+/m1/s1

>  <InChIKey>
KCXDWSUMIHDAQQ-KFRVFMFJSA-N

>  <SMILES>
CC(=O)N[C@H]1[C@H]([C@H]2[C@@H](CO[C@](O2)(C)C(=O)O)O[C@H]1OC)O

$$$$
