1YPG_UIR_H_5555
  RCSB PDB08012016283D
Coordinates from PDB:1YPG:H:5555 Model:1 without hydrogens
 34 40  0  0  0  0            999 V2000
   10.3920  -11.8420   24.2390   N 0  0  0  0  0  0  0  0  0  0  0  0
   11.1550  -10.8420   23.7920   C 0  0  0  0  0  0  0  0  0  0  0  0
   12.2240  -10.9460   22.8520   C 0  0  0  0  0  0  0  0  0  0  0  0
   12.5480  -12.1990   22.3090   C 0  0  0  0  0  0  0  0  0  0  0  0
   13.5860  -12.3050   21.3830   C 0  0  0  0  0  0  0  0  0  0  0  0
   14.3110  -11.1800   20.9780   C 0  0  0  0  0  0  0  0  0  0  0  0
   15.4670  -11.3170   20.0350   C 0  0  0  0  0  0  0  0  0  0  0  0
   15.3400  -12.5240   19.1570   N 0  0  0  0  0  0  0  0  0  0  0  0
   14.3840  -12.3600   18.0190   C 0  0  0  0  0  0  0  0  0  0  0  0
   15.2470  -12.4590   16.7320   C 0  0  0  0  0  0  0  0  0  0  0  0
   16.6180  -11.9890   17.1840   C 0  0  0  0  0  0  0  0  0  0  0  0
   16.7240  -12.6920   18.5650   C 0  0  0  0  0  0  0  0  0  0  0  0
   17.7200  -11.8570   19.4210   C 0  0  0  0  0  0  0  0  0  0  0  0
   20.3410  -12.8900   19.8910   C 0  0  0  0  0  0  0  0  0  0  0  0
   18.8290  -12.7630   20.0550   C 0  0  0  0  0  0  0  0  0  0  0  0
   21.1640  -12.3390   20.3800   C 0  0  0  0  0  0  0  0  0  0  0  0
   20.8360  -12.0190   18.7640   C 0  0  0  0  0  0  0  0  0  0  0  0
   18.2280  -13.2680   21.2590   N 0  0  0  0  0  0  0  0  0  0  0  0
   17.0320  -12.6620   21.5760   C 0  0  0  0  0  0  0  0  0  0  0  0
   16.4330  -12.7950   22.6740   O 0  0  0  0  0  0  0  0  0  0  0  0
   16.8800  -11.4280   20.6600   C 0  0  0  0  0  0  0  0  0  0  0  0
   18.7190  -14.4170   22.0850   C 0  0  0  0  0  0  0  0  0  0  0  0
   19.6590  -14.0670   23.2310   C 0  0  0  0  0  0  0  0  0  0  0  0
   21.0380  -14.2840   23.0270   C 0  0  0  0  0  0  0  0  0  0  0  0
   21.9160  -13.9620   24.0820   C 0  0  0  0  0  0  0  0  0  0  0  0
   23.3120  -14.1140   24.0690   O 0  0  0  0  0  0  0  0  0  0  0  0
   23.6860  -13.6450   25.3880   C 0  0  0  0  0  0  0  0  0  0  0  0
   22.5010  -13.2210   26.1480   O 0  0  0  0  0  0  0  0  0  0  0  0
   21.4410  -13.4380   25.3020   C 0  0  0  0  0  0  0  0  0  0  0  0
   20.0810  -13.2230   25.5570   C 0  0  0  0  0  0  0  0  0  0  0  0
   19.2140  -13.5370   24.4830   C 0  0  0  0  0  0  0  0  0  0  0  0
   13.9800   -9.9340   21.5300   C 0  0  0  0  0  0  0  0  0  0  0  0
   12.9500   -9.8170   22.4480   C 0  0  0  0  0  0  0  0  0  0  0  0
   10.8240   -9.6400   24.3340   N 0  0  0  0  0  0  0  0  0  0  0  0
  1  2  1  0  0  0  0
  2  3  1  0  0  0  0
  2 34  2  0  0  0  0
  3  4  2  0  0  0  0
  3 33  1  0  0  0  0
  4  5  1  0  0  0  0
  5  6  2  0  0  0  0
  6  7  1  0  0  0  0
  6 32  1  0  0  0  0
  7  8  1  0  0  0  0
  7 21  1  0  0  0  0
  8  9  1  0  0  0  0
  8 12  1  0  0  0  0
  9 10  1  0  0  0  0
 10 11  1  0  0  0  0
 11 12  1  0  0  0  0
 12 13  1  0  0  0  0
 13 15  1  0  0  0  0
 13 21  1  0  0  0  0
 14 15  1  0  0  0  0
 14 16  1  0  0  0  0
 14 17  1  0  0  0  0
 15 18  1  0  0  0  0
 16 17  1  0  0  0  0
 18 19  1  0  0  0  0
 18 22  1  0  0  0  0
 19 20  2  0  0  0  0
 19 21  1  0  0  0  0
 22 23  1  0  0  0  0
 23 24  2  0  0  0  0
 23 31  1  0  0  0  0
 24 25  1  0  0  0  0
 25 26  1  0  0  0  0
 25 29  2  0  0  0  0
 26 27  1  0  0  0  0
 27 28  1  0  0  0  0
 28 29  1  0  0  0  0
 29 30  1  0  0  0  0
 30 31  2  0  0  0  0
 32 33  2  0  0  0  0
M  END
>  <InstanceId>
1YPG_UIR_H_5555

>  <ChemCompId>
UIR

>  <PdbId>
1YPG

>  <ChainId>
H

>  <ResidueNumber>
5555

>  <InsertionCode>


>  <Model>
1

>  <AltIds>


>  <MissingHeavyAtoms>
0

>  <ObservedFormula>
C27 N4 O3

>  <Name>
(1R,3AS,4R,8AS,8BR)-4-(2-BENZO[1,3]DIOXOL-5-YL-1-CYCLOPROPYL-3-OXO-DECAHYDRO-PYRROLO[3,4-A]PYRROLIZIN-4-YL)-BENZAMIDINE

>  <SystematicName>
4-[(1R,3aS,4R,5S,8aS,8bR)-2-(1,3-benzodioxol-5-ylmethyl)-1-cyclopropyl-3-oxo-1,3a,4,6,7,8,8a,8b-octahydropyrrolo[3,4-a]pyrrolizin-4-yl]benzenecarboximidamide

>  <Synonyms>


>  <Type>
NON-POLYMER

>  <Formula>
C27 H30 N4 O3

>  <MolecularWeight>
458.552

>  <ModifiedDate>
2011-06-04

>  <Parent>


>  <OneLetterCode>


>  <SubcomponentList>


>  <AmbiguousFlag>
N

>  <InChI>
InChI=1S/C27H30N4O3/c28-26(29)18-8-6-17(7-9-18)25-23-22(19-2-1-11-30(19)25)24(16-4-5-16)31(27(23)32)13-15-3-10-20-21(12-15)34-14-33-20/h3,6-10,12,16,19,22-25H,1-2,4-5,11,13-14H2,(H3,28,29)/t19-,22-,23-,24+,25-/m0/s1

>  <InChIKey>
XYMBMAVAMICSMV-FTSNLURZSA-N

>  <SMILES>
c1cc(ccc1[C@H]2[C@@H]3[C@H]([C@H]4[N@@]2CCC4)[C@H](N(C3=O)Cc5ccc6c(c5)OCO6)C7CC7)C(=N)N

$$$$
