4GAH_0ET_A_301
  RCSB PDB08012021473D
Coordinates from PDB:4GAH:A:301 Model:1 without hydrogens
 60 62  0  0  0  0            999 V2000
   23.0330   64.9430   39.9470   S 0  0  0  0  0  0  0  0  0  0  0  0
   21.9410   63.6360   40.4030   C 0  0  0  0  0  0  0  0  0  0  0  0
   22.7260   62.3530   40.6520   C 0  0  0  0  0  0  0  0  0  0  0  0
   23.3900   62.0400   39.3870   N 0  0  0  0  0  0  0  0  0  0  0  0
   22.9670   61.1310   38.5220   C 0  0  0  0  0  0  0  0  0  0  0  0
   21.9480   60.4880   38.7520   O 0  0  0  0  0  0  0  0  0  0  0  0
   23.7780   60.9520   37.2560   C 0  0  0  0  0  0  0  0  0  0  0  0
   23.5400   59.5850   36.6050   C 0  0  0  0  0  0  0  0  0  0  0  0
   24.5120   59.4930   35.5210   N 0  0  0  0  0  0  0  0  0  0  0  0
   24.3830   59.8670   34.3050   C 0  0  0  0  0  0  0  0  0  0  0  0
   23.2420   60.4200   33.8830   O 0  0  0  0  0  0  0  0  0  0  0  0
   23.5950   64.9520   41.6210   C 0  0  0  0  0  0  0  0  0  0  0  0
   25.5300   59.6670   33.3430   C 0  0  0  0  0  0  0  0  0  0  0  0
   26.4050   58.6280   33.7890   O 0  0  0  0  0  0  0  0  0  0  0  0
   26.3750   60.9250   33.2490   C 0  0  0  0  0  0  0  0  0  0  0  0
   27.4330   60.7610   32.1570   C 0  0  0  0  0  0  0  0  0  0  0  0
   27.0550   61.1280   34.6040   C 0  0  0  0  0  0  0  0  0  0  0  0
   25.4590   62.0860   32.9000   C 0  0  0  0  0  0  0  0  0  0  0  0
   33.5580   57.0260   37.0730   N 0  0  0  0  0  0  0  0  0  0  0  0
   29.0190   58.0170   29.9970   O 0  0  0  0  0  0  0  0  0  0  0  0
   29.7180   59.1310   29.2550   P 0  0  0  0  0  0  0  0  0  0  0  0
   22.8240   65.8750   42.5820   C 0  0  0  0  0  0  0  0  0  0  0  0
   21.4100   65.8890   42.3430   O 0  0  0  0  0  0  0  0  0  0  0  0
   33.5720   58.9300   32.2590   C 0  0  0  0  0  0  0  0  0  0  0  0
   34.6040   57.3450   36.2890   C 0  0  0  0  0  0  0  0  0  0  0  0
   29.9530   59.0100   27.7640   O 0  0  0  0  0  0  0  0  0  0  0  0
   27.3840   60.7430   29.4240   P 0  0  0  0  0  0  0  0  0  0  0  0
   23.3740   67.2930   42.5180   C 0  0  0  0  0  0  0  0  0  0  0  0
   33.4900   58.0530   31.0240   C 0  0  0  0  0  0  0  0  0  0  0  0
   34.5060   57.0490   31.0840   O 0  0  0  0  0  0  0  0  0  0  0  0
   34.4350   57.8280   35.0480   N 0  0  0  0  0  0  0  0  0  0  0  0
   28.9790   60.5250   29.5700   O 0  0  0  0  0  0  0  0  0  0  0  0
   22.4400   68.2670   43.2280   C 0  0  0  0  0  0  0  0  0  0  0  0
   33.7840   59.0540   29.9310   C 0  0  0  0  0  0  0  0  0  0  0  0
   35.1980   59.1630   29.9110   O 0  0  0  0  0  0  0  0  0  0  0  0
   36.0770   59.1030   28.5630   P 0  0  0  0  0  0  0  0  0  0  0  0
   33.1870   58.0000   34.5440   C 0  0  0  0  0  0  0  0  0  0  0  0
   26.8020   59.6000   28.6300   O 0  0  0  0  0  0  0  0  0  0  0  0
   22.2480   69.4140   42.2730   C 0  0  0  0  0  0  0  0  0  0  0  0
   33.2210   60.3790   30.4340   C 0  0  0  0  0  0  0  0  0  0  0  0
   33.1450   60.2470   31.8510   O 0  0  0  0  0  0  0  0  0  0  0  0
   32.0860   57.6690   35.3220   C 0  0  0  0  0  0  0  0  0  0  0  0
   27.1560   62.1790   28.9940   O 0  0  0  0  0  0  0  0  0  0  0  0
   21.0520   69.9160   41.9940   C 0  0  0  0  0  0  0  0  0  0  0  0
   31.8180   60.6280   29.9030   C 0  0  0  0  0  0  0  0  0  0  0  0
   31.1540   59.3700   29.9350   O 0  0  0  0  0  0  0  0  0  0  0  0
   32.2860   57.1680   36.6190   C 0  0  0  0  0  0  0  0  0  0  0  0
   31.2310   56.8290   37.4200   N 0  0  0  0  0  0  0  0  0  0  0  0
   26.7660   60.5390   30.9120   O 0  0  0  0  0  0  0  0  0  0  0  0
   21.0210   71.0600   41.0070   C 0  0  0  0  0  0  0  0  0  0  0  0
   30.9860   57.9460   34.5850   N 0  0  0  0  0  0  0  0  0  0  0  0
   35.4290   58.0140   27.7320   O 0  0  0  0  0  0  0  0  0  0  0  0
   20.4330   70.5420   39.6970   C 0  0  0  0  0  0  0  0  0  0  0  0
   31.3960   58.4240   33.3880   C 0  0  0  0  0  0  0  0  0  0  0  0
   37.4640   58.7450   29.0560   O 0  0  0  0  0  0  0  0  0  0  0  0
   21.5130   70.3050   38.6470   C 0  0  0  0  0  0  0  0  0  0  0  0
   32.7330   58.4480   33.3730   N 0  0  0  0  0  0  0  0  0  0  0  0
   35.9610   60.5160   28.0220   O 0  0  0  0  0  0  0  0  0  0  0  0
   20.9010   70.3150   37.2480   C 0  0  0  0  0  0  0  0  0  0  0  0
   21.0480   68.9680   36.5710   C 0  0  0  0  0  0  0  0  0  0  0  0
 19 25  2  0  0  0  0
 19 47  1  0  0  0  0
 25 31  1  0  0  0  0
 48 47  1  0  0  0  0
 47 42  2  0  0  0  0
 31 37  2  0  0  0  0
 37 42  1  0  0  0  0
 37 57  1  0  0  0  0
 42 51  1  0  0  0  0
 57 24  1  0  0  0  0
 57 54  1  0  0  0  0
 51 54  2  0  0  0  0
 30 29  1  0  0  0  0
 55 36  2  0  0  0  0
 24 29  1  0  0  0  0
 24 41  1  0  0  0  0
 52 36  1  0  0  0  0
  2  3  1  0  0  0  0
  2  1  1  0  0  0  0
 29 34  1  0  0  0  0
 35 36  1  0  0  0  0
 35 34  1  0  0  0  0
 12 22  1  0  0  0  0
 12  1  1  0  0  0  0
 36 58  1  0  0  0  0
 41 40  1  0  0  0  0
 23 22  1  0  0  0  0
  3  4  1  0  0  0  0
 22 28  1  0  0  0  0
  4  5  1  0  0  0  0
 34 40  1  0  0  0  0
 40 45  1  0  0  0  0
  5  7  1  0  0  0  0
  5  6  2  0  0  0  0
  7  8  1  0  0  0  0
 28 33  1  0  0  0  0
 33 39  1  0  0  0  0
 17 15  1  0  0  0  0
  8  9  1  0  0  0  0
 39 44  1  0  0  0  0
  9 10  1  0  0  0  0
 45 46  1  0  0  0  0
 14 13  1  0  0  0  0
 46 21  1  0  0  0  0
 44 50  1  0  0  0  0
 16 15  1  0  0  0  0
 16 49  1  0  0  0  0
 15 13  1  0  0  0  0
 15 18  1  0  0  0  0
 10 13  1  0  0  0  0
 10 11  2  0  0  0  0
 50 53  1  0  0  0  0
 53 56  1  0  0  0  0
 26 21  2  0  0  0  0
 21 32  1  0  0  0  0
 21 20  1  0  0  0  0
 32 27  1  0  0  0  0
 49 27  1  0  0  0  0
 59 56  1  0  0  0  0
 59 60  1  0  0  0  0
 27 43  2  0  0  0  0
 27 38  1  0  0  0  0
M  END
>  <InstanceId>
4GAH_0ET_A_301

>  <ChemCompId>
0ET

>  <PdbId>
4GAH

>  <ChainId>
A

>  <ResidueNumber>
301

>  <InsertionCode>


>  <Model>
1

>  <AltIds>


>  <MissingHeavyAtoms>
0

>  <ObservedFormula>
C32 N7 O17 P3 S

>  <Name>
[[(2R,3S,4R,5R)-5-(6-aminopurin-9-yl)-4-oxidanyl-3-phosphonooxy-oxolan-2-yl]methoxy-oxidanyl-phosphoryl] [(3R)-2,2-dimethyl-3-oxidanyl-4-oxidanylidene-4-[[3-oxidanylidene-3-[2-[(2R)-2-oxidanylundecyl]sulfanylethylamino]propyl]amino]butyl] hydrogen phosphate

>  <SystematicName>
[[(2R,3S,4R,5R)-5-(6-aminopurin-9-yl)-4-oxidanyl-3-phosphonooxy-oxolan-2-yl]methoxy-oxidanyl-phosphoryl] [(3R)-2,2-dimethyl-3-oxidanyl-4-oxidanylidene-4-[[3-oxidanylidene-3-[2-[(2R)-2-oxidanylundecyl]sulfanylethylamino]propyl]amino]butyl] hydrogen phosphate

>  <Synonyms>
undecan-2-one-CoA

>  <Type>
NON-POLYMER

>  <Formula>
C32 H58 N7 O17 P3 S

>  <MolecularWeight>
937.826

>  <ModifiedDate>
2012-08-24

>  <Parent>


>  <OneLetterCode>


>  <SubcomponentList>


>  <AmbiguousFlag>
N

>  <InChI>
InChI=1S/C32H58N7O17P3S/c1-4-5-6-7-8-9-10-11-21(40)17-60-15-14-34-23(41)12-13-35-30(44)27(43)32(2,3)18-53-59(50,51)56-58(48,49)52-16-22-26(55-57(45,46)47)25(42)31(54-22)39-20-38-24-28(33)36-19-37-29(24)39/h19-22,25-27,31,40,42-43H,4-18H2,1-3H3,(H,34,41)(H,35,44)(H,48,49)(H,50,51)(H2,33,36,37)(H2,45,46,47)/t21-,22-,25-,26-,27+,31-/m1/s1

>  <InChIKey>
LVZITIAGAKKXBV-XBRBJHMKSA-N

>  <SMILES>
CCCCCCCCC[C@H](CSCCNC(=O)CCNC(=O)[C@@H](C(C)(C)COP(=O)(O)OP(=O)(O)OC[C@@H]1[C@H]([C@H]([C@@H](O1)n2cnc3c2ncnc3N)O)OP(=O)(O)O)O)O

$$$$
