5OM2_DXT_B_501
  RCSB PDB08022002423D
Coordinates from PDB:5OM2:B:501 Model:1 without hydrogens
 32 35  0  0  0  0            999 V2000
    2.4900  -16.7200  -15.7290   C 0  0  0  0  0  0  0  0  0  0  0  0
    1.3800  -17.2280  -15.6950   O 0  0  0  0  0  0  0  0  0  0  0  0
    2.9510  -15.8470  -16.7800   C 0  0  0  0  0  0  0  0  0  0  0  0
    2.7960  -15.6090  -19.1690   O 0  0  0  0  0  0  0  0  0  0  0  0
    2.2770  -15.9480  -18.1140   C 0  0  0  0  0  0  0  0  0  0  0  0
    0.9900  -16.4680  -18.0760   N 0  0  0  0  0  0  0  0  0  0  0  0
    4.0940  -15.1400  -16.7210   C 0  0  0  0  0  0  0  0  0  0  0  0
    4.7260  -14.6440  -17.7970   O 0  0  0  0  0  0  0  0  0  0  0  0
    4.9860  -15.1600  -15.5100   C 0  0  0  0  0  0  0  0  0  0  0  0
    4.5100  -14.0630  -14.5120   N 0  0  0  0  0  0  0  0  0  0  0  0
    4.3930  -12.7280  -15.2270   C 0  0  0  0  0  0  0  0  0  0  0  0
    5.5310  -13.8580  -13.3950   C 0  0  0  0  0  0  0  0  0  0  0  0
    4.9290  -16.5750  -14.8730   C 0  0  0  0  0  0  0  0  0  0  0  0
    5.7480  -17.5980  -15.7080   C 0  0  0  0  0  0  0  0  0  0  0  0
    7.0570  -17.1290  -15.8710   O 0  0  0  0  0  0  0  0  0  0  0  0
    5.7680  -18.9960  -15.0390   C 0  0  0  0  0  0  0  0  0  0  0  0
    6.3310  -20.1340  -15.9490   C 0  0  0  0  0  0  0  0  0  0  0  0
    7.6900  -19.7630  -16.5360   C 0  0  0  0  0  0  0  0  0  0  0  0
    6.3370  -21.4590  -15.2110   C 0  0  0  0  0  0  0  0  0  0  0  0
    7.3080  -22.4330  -15.4210   C 0  0  0  0  0  0  0  0  0  0  0  0
    7.2820  -23.6430  -14.7380   C 0  0  0  0  0  0  0  0  0  0  0  0
    6.2930  -23.9260  -13.8270   C 0  0  0  0  0  0  0  0  0  0  0  0
    5.3130  -22.9480  -13.6030   C 0  0  0  0  0  0  0  0  0  0  0  0
    4.3580  -23.2730  -12.6830   O 0  0  0  0  0  0  0  0  0  0  0  0
    5.3330  -21.7340  -14.2860   C 0  0  0  0  0  0  0  0  0  0  0  0
    4.3010  -20.7690  -13.9970   C 0  0  0  0  0  0  0  0  0  0  0  0
    3.3390  -21.0780  -13.2840   O 0  0  0  0  0  0  0  0  0  0  0  0
    4.4150  -19.4020  -14.5250   C 0  0  0  0  0  0  0  0  0  0  0  0
    3.4520  -18.5040  -14.1910   C 0  0  0  0  0  0  0  0  0  0  0  0
    2.3220  -18.7550  -13.5180   O 0  0  0  0  0  0  0  0  0  0  0  0
    3.4570  -17.0070  -14.5620   C 0  0  0  0  0  0  0  0  0  0  0  0
    3.0400  -16.2820  -13.4480   O 0  0  0  0  0  0  0  0  0  0  0  0
  1 31  1  0  0  0  0
  1  2  2  0  0  0  0
  1  3  1  0  0  0  0
  3  5  1  0  0  0  0
  3  7  2  0  0  0  0
  4  5  2  0  0  0  0
  5  6  1  0  0  0  0
  7  8  1  0  0  0  0
  7  9  1  0  0  0  0
  9 10  1  0  0  0  0
  9 13  1  0  0  0  0
 10 11  1  0  0  0  0
 10 12  1  0  0  0  0
 13 31  1  0  0  0  0
 13 14  1  0  0  0  0
 14 15  1  0  0  0  0
 14 16  1  0  0  0  0
 16 28  1  0  0  0  0
 16 17  1  0  0  0  0
 17 19  1  0  0  0  0
 17 18  1  0  0  0  0
 19 25  1  0  0  0  0
 19 20  2  0  0  0  0
 20 21  1  0  0  0  0
 21 22  2  0  0  0  0
 22 23  1  0  0  0  0
 23 24  1  0  0  0  0
 23 25  2  0  0  0  0
 25 26  1  0  0  0  0
 26 27  2  0  0  0  0
 26 28  1  0  0  0  0
 28 29  2  0  0  0  0
 29 30  1  0  0  0  0
 29 31  1  0  0  0  0
 31 32  1  0  0  0  0
M  END
>  <InstanceId>
5OM2_DXT_B_501

>  <ChemCompId>
DXT

>  <PdbId>
5OM2

>  <ChainId>
B

>  <ResidueNumber>
501

>  <InsertionCode>


>  <Model>
1

>  <AltIds>


>  <MissingHeavyAtoms>
0

>  <ObservedFormula>
C22 N2 O8

>  <Name>
(4S,4AR,5S,5AR,6R,12AS)-4-(DIMETHYLAMINO)-3,5,10,12,12A-PENTAHYDROXY-6-METHYL-1,11-DIOXO-1,4,4A,5,5A,6,11,12A-OCTAHYDROTETRACENE-2-CARBOXAMIDE

>  <SystematicName>
(4S,4aR,5S,5aR,6R,12aS)-4-dimethylamino-3,5,10,12,12a-pentahydroxy-6-methyl-1,11-dioxo-4a,5,5a,6-tetrahydro-4H-tetracene-2-carboxamide

>  <Synonyms>
DOXYTETRACYCLINE; DOXYCYCLINE

>  <Type>
NON-POLYMER

>  <Formula>
C22 H24 N2 O8

>  <MolecularWeight>
444.435

>  <ModifiedDate>
2020-05-27

>  <Parent>


>  <OneLetterCode>


>  <SubcomponentList>


>  <AmbiguousFlag>


>  <InChI>
InChI=1S/C22H24N2O8/c1-7-8-5-4-6-9(25)11(8)16(26)12-10(7)17(27)14-15(24(2)3)18(28)13(21(23)31)20(30)22(14,32)19(12)29/h4-7,10,14-15,17,25,27-29,32H,1-3H3,(H2,23,31)/t7-,10+,14+,15-,17-,22-/m0/s1

>  <InChIKey>
JBIWCJUYHHGXTC-AKNGSSGZSA-N

>  <SMILES>
C[C@H]1c2cccc(c2C(=O)C3=C([C@]4([C@@H]([C@H]([C@H]13)O)[C@@H](C(=C(C4=O)C(=O)N)O)N(C)C)O)O)O

$$$$
