2YI0_YI0_A_1225
  RCSB PDB08012018233D
Coordinates from PDB:2YI0:A:1225 Model:1 without hydrogens
 22 24  0  0  0  0            999 V2000
   30.1230    9.0240   28.0130   N 0  0  0  0  0  0  0  0  0  0  0  0
   30.0090    9.9180   27.0770   N 0  0  0  0  0  0  0  0  0  0  0  0
   30.8210    9.6080   26.0270   C 0  0  0  0  0  0  0  0  0  0  0  0
   31.6090    8.4490   26.1710   C 0  0  0  0  0  0  0  0  0  0  0  0
   30.8820   10.4360   24.8480   C 0  0  0  0  0  0  0  0  0  0  0  0
   32.5560    7.8240   25.3410   C 0  0  0  0  0  0  0  0  0  0  0  0
   32.2050    7.4140   24.0780   C 0  0  0  0  0  0  0  0  0  0  0  0
   33.0390    6.8120   23.1840   C 0  0  0  0  0  0  0  0  0  0  0  0
   34.3760    6.6920   23.5110   C 0  0  0  0  0  0  0  0  0  0  0  0
   34.8020    7.0880   24.7700   C 0  0  0  0  0  0  0  0  0  0  0  0
   33.8940    7.6470   25.6490   C 0  0  0  0  0  0  0  0  0  0  0  0
   29.7440   10.8380   24.1780   C 0  0  0  0  0  0  0  0  0  0  0  0
   29.7380   11.5920   22.9570   C 0  0  0  0  0  0  0  0  0  0  0  0
   31.0040   12.0830   22.5960   C 0  0  0  0  0  0  0  0  0  0  0  0
   32.1320   11.6890   23.3220   C 0  0  0  0  0  0  0  0  0  0  0  0
   32.1590   10.9080   24.4240   C 0  0  0  0  0  0  0  0  0  0  0  0
   31.1400   12.7290   21.4090   O 0  0  0  0  0  0  0  0  0  0  0  0
   28.5370   10.4350   24.6060   O 0  0  0  0  0  0  0  0  0  0  0  0
   35.3390    6.1070   22.7550   O 0  0  0  0  0  0  0  0  0  0  0  0
   31.1670    7.8150   27.7500   S 0  0  0  0  0  0  0  0  0  0  0  0
   34.9620    5.7450   21.4020   C 0  0  0  0  0  0  0  0  0  0  0  0
   33.7210   12.3740   22.7910  Cl 0  0  0  0  0  0  0  0  0  0  0  0
  1  2  2  0  0  0  0
  1 20  1  0  0  0  0
  2  3  1  0  0  0  0
  3  4  2  0  0  0  0
  3  5  1  0  0  0  0
  4  6  1  0  0  0  0
  4 20  1  0  0  0  0
  5 12  1  0  0  0  0
  5 16  2  0  0  0  0
  6  7  1  0  0  0  0
  6 11  2  0  0  0  0
  7  8  2  0  0  0  0
  8  9  1  0  0  0  0
  9 10  2  0  0  0  0
  9 19  1  0  0  0  0
 10 11  1  0  0  0  0
 12 13  2  0  0  0  0
 12 18  1  0  0  0  0
 13 14  1  0  0  0  0
 14 15  2  0  0  0  0
 14 17  1  0  0  0  0
 15 16  1  0  0  0  0
 15 22  1  0  0  0  0
 19 21  1  0  0  0  0
M  END
>  <InstanceId>
2YI0_YI0_A_1225

>  <ChemCompId>
YI0

>  <PdbId>
2YI0

>  <ChainId>
A

>  <ResidueNumber>
1225

>  <InsertionCode>


>  <Model>
1

>  <AltIds>


>  <MissingHeavyAtoms>
0

>  <ObservedFormula>
C15 N2 O3 S Cl

>  <Name>
4-CHLORO-6-[5-(4-METHOXYPHENYL)-1,2,3-THIADIAZOL-4-YL]BENZENE-1,3-DIOL

>  <SystematicName>
4-chloranyl-6-[5-(4-methoxyphenyl)-1,2,3-thiadiazol-4-yl]benzene-1,3-diol

>  <Synonyms>


>  <Type>
non-polymer

>  <Formula>
C15 H11 Cl N2 O3 S

>  <MolecularWeight>
334.777

>  <ModifiedDate>
2012-05-11

>  <Parent>


>  <OneLetterCode>


>  <SubcomponentList>


>  <AmbiguousFlag>
N

>  <InChI>
InChI=1S/C15H11ClN2O3S/c1-21-9-4-2-8(3-5-9)15-14(17-18-22-15)10-6-11(16)13(20)7-12(10)19/h2-7,19-20H,1H3

>  <InChIKey>
FHKZHOZHULTQJI-UHFFFAOYSA-N

>  <SMILES>
COc1ccc(cc1)c2c(nns2)c3cc(c(cc3O)O)Cl

$$$$
