6FTP_DM2_B_501
  RCSB PDB08022004433D
Coordinates from PDB:6FTP:B:501 Model:1 without hydrogens
 39 43  0  0  0  0            999 V2000
  -22.2120    6.9570    2.1750   C 0  0  0  0  0  0  0  0  0  0  0  0
  -22.4560    8.1910    2.7590   C 0  0  0  0  0  0  0  0  0  0  0  0
  -21.4090    9.0580    2.9920   C 0  0  0  0  0  0  0  0  0  0  0  0
  -20.1050    8.6980    2.6420   C 0  0  0  0  0  0  0  0  0  0  0  0
  -19.0500    9.5370    2.8620   O 0  0  0  0  0  0  0  0  0  0  0  0
  -19.8290    7.4540    2.0490   C 0  0  0  0  0  0  0  0  0  0  0  0
  -18.4660    7.0520    1.6720   C 0  0  0  0  0  0  0  0  0  0  0  0
  -17.5000    7.7780    1.8540   O 0  0  0  0  0  0  0  0  0  0  0  0
  -18.2960    5.7240    1.0570   C 0  0  0  0  0  0  0  0  0  0  0  0
  -17.0260    5.2960    0.6820   C 0  0  0  0  0  0  0  0  0  0  0  0
  -15.9580    6.1140    0.8900   O 0  0  0  0  0  0  0  0  0  0  0  0
  -16.8250    4.0400    0.0950   C 0  0  0  0  0  0  0  0  0  0  0  0
  -15.4250    3.6600   -0.2780   C 0  0  0  0  0  0  0  0  0  0  0  0
  -14.7570    3.3580    0.9250   O 0  0  0  0  0  0  0  0  0  0  0  0
  -15.4150    2.4740   -1.2590   C 0  0  0  0  0  0  0  0  0  0  0  0
  -16.3080    1.3800   -0.6610   C 0  0  0  0  0  0  0  0  0  0  0  0
  -15.8900    1.2060    0.6600   O 0  0  0  0  0  0  0  0  0  0  0  0
  -16.1250    0.0810   -1.4600   C 0  0  0  0  0  0  0  0  0  0  0  0
  -16.4980   -0.0210   -2.6070   O 0  0  0  0  0  0  0  0  0  0  0  0
  -15.4510   -1.0640   -0.7340   C 0  0  0  0  0  0  0  0  0  0  0  0
  -14.1250   -1.0320   -1.1660   O 0  0  0  0  0  0  0  0  0  0  0  0
  -17.7610    1.8460   -0.7450   C 0  0  0  0  0  0  0  0  0  0  0  0
  -17.8960    3.1930   -0.1270   C 0  0  0  0  0  0  0  0  0  0  0  0
  -19.1730    3.6240    0.2510   C 0  0  0  0  0  0  0  0  0  0  0  0
  -20.2290    2.7900    0.0340   O 0  0  0  0  0  0  0  0  0  0  0  0
  -19.3780    4.8700    0.8340   C 0  0  0  0  0  0  0  0  0  0  0  0
  -20.7320    5.2730    1.2110   C 0  0  0  0  0  0  0  0  0  0  0  0
  -21.6860    4.5280    1.0180   O 0  0  0  0  0  0  0  0  0  0  0  0
  -20.9200    6.5970    1.8270   C 0  0  0  0  0  0  0  0  0  0  0  0
  -19.3820   10.9030    2.7120   C 0  0  0  0  0  0  0  0  0  0  0  0
  -13.5970    4.1410    1.1050   C 0  0  0  0  0  0  0  0  0  0  0  0
  -13.0770    3.9540    2.5350   C 0  0  0  0  0  0  0  0  0  0  0  0
  -12.7030    2.4840    2.7580   C 0  0  0  0  0  0  0  0  0  0  0  0
  -12.0490    2.3190    4.0520   N 0  0  0  0  0  0  0  0  0  0  0  0
  -11.7300    2.0320    1.6280   C 0  0  0  0  0  0  0  0  0  0  0  0
  -10.5680    2.7850    1.7460   O 0  0  0  0  0  0  0  0  0  0  0  0
  -12.4290    2.2940    0.2790   C 0  0  0  0  0  0  0  0  0  0  0  0
  -12.6880    3.6700    0.1470   O 0  0  0  0  0  0  0  0  0  0  0  0
  -11.5880    1.8700   -0.9150   C 0  0  0  0  0  0  0  0  0  0  0  0
  1  2  2  0  0  0  0
  1 29  1  0  0  0  0
  2  3  1  0  0  0  0
  3  4  2  0  0  0  0
  4  5  1  0  0  0  0
  4  6  1  0  0  0  0
  5 30  1  0  0  0  0
  6  7  1  0  0  0  0
  6 29  2  0  0  0  0
  7  8  2  0  0  0  0
  7  9  1  0  0  0  0
  9 10  2  0  0  0  0
  9 26  1  0  0  0  0
 10 11  1  0  0  0  0
 10 12  1  0  0  0  0
 12 13  1  0  0  0  0
 12 23  2  0  0  0  0
 13 14  1  0  0  0  0
 13 15  1  0  0  0  0
 14 31  1  0  0  0  0
 15 16  1  0  0  0  0
 16 17  1  0  0  0  0
 16 18  1  0  0  0  0
 16 22  1  0  0  0  0
 18 19  2  0  0  0  0
 18 20  1  0  0  0  0
 20 21  1  0  0  0  0
 22 23  1  0  0  0  0
 23 24  1  0  0  0  0
 24 25  1  0  0  0  0
 24 26  2  0  0  0  0
 26 27  1  0  0  0  0
 27 28  2  0  0  0  0
 27 29  1  0  0  0  0
 31 32  1  0  0  0  0
 31 38  1  0  0  0  0
 32 33  1  0  0  0  0
 33 34  1  0  0  0  0
 33 35  1  0  0  0  0
 35 36  1  0  0  0  0
 35 37  1  0  0  0  0
 37 38  1  0  0  0  0
 37 39  1  0  0  0  0
M  END
>  <InstanceId>
6FTP_DM2_B_501

>  <ChemCompId>
DM2

>  <PdbId>
6FTP

>  <ChainId>
B

>  <ResidueNumber>
501

>  <InsertionCode>


>  <Model>
1

>  <AltIds>


>  <MissingHeavyAtoms>
0

>  <ObservedFormula>
C27 N O11

>  <Name>
DOXORUBICIN

>  <SystematicName>
(7S,9S)-7-[(2R,4S,5S,6S)-4-amino-5-hydroxy-6-methyl-oxan-2-yl]oxy-6,9,11-trihydroxy-9-(2-hydroxyethanoyl)-4-methoxy-8,10-dihydro-7H-tetracene-5,12-dione

>  <Synonyms>
ADRIAMYCIN

>  <Type>
NON-POLYMER

>  <Formula>
C27 H29 N O11

>  <MolecularWeight>
543.519

>  <ModifiedDate>
2011-06-04

>  <Parent>


>  <OneLetterCode>


>  <SubcomponentList>


>  <AmbiguousFlag>
N

>  <InChI>
InChI=1S/C27H29NO11/c1-10-22(31)13(28)6-17(38-10)39-15-8-27(36,16(30)9-29)7-12-19(15)26(35)21-20(24(12)33)23(32)11-4-3-5-14(37-2)18(11)25(21)34/h3-5,10,13,15,17,22,29,31,33,35-36H,6-9,28H2,1-2H3/t10-,13-,15-,17-,22+,27-/m0/s1

>  <InChIKey>
AOJJSUZBOXZQNB-TZSSRYMLSA-N

>  <SMILES>
C[C@H]1[C@H]([C@H](C[C@@H](O1)O[C@H]2C[C@@](Cc3c2c(c4c(c3O)C(=O)c5cccc(c5C4=O)OC)O)(C(=O)CO)O)N)O

$$$$
