4M8Y_KGQ_A_201
  RCSB PDB08012022293D
Coordinates from PDB:4M8Y:A:201 Model:1 without hydrogens
 49 52  0  0  0  0            999 V2000
  -11.7130   52.5480    2.1530   N 0  0  0  0  0  0  0  0  0  0  0  0
  -13.6420   51.3280   -1.4990   C 0  0  0  0  0  0  0  0  0  0  0  0
  -14.5730   47.0950    1.8150   O 0  0  0  0  0  0  0  0  0  0  0  0
  -11.8980   52.6670    3.5960   C 0  0  0  0  0  0  0  0  0  0  0  0
  -11.5780   51.3020    4.2250   C 0  0  0  0  0  0  0  0  0  0  0  0
  -12.3920   50.1710    3.5780   C 0  0  0  0  0  0  0  0  0  0  0  0
  -13.7750   50.1590    3.6670   C 0  0  0  0  0  0  0  0  0  0  0  0
  -14.4980   49.1220    3.0760   C 0  0  0  0  0  0  0  0  0  0  0  0
  -13.8530   48.0920    2.4010   C 0  0  0  0  0  0  0  0  0  0  0  0
  -15.4900   47.6750    0.8550   C 0  0  0  0  0  0  0  0  0  0  0  0
  -16.3720   46.4480   -0.2110   P 0  0  0  0  0  0  0  0  0  0  0  0
  -17.9580   46.8050   -0.2490   O 0  0  0  0  0  0  0  0  0  0  0  0
  -18.8740   46.2720    0.6790   C 0  0  0  0  0  0  0  0  0  0  0  0
  -20.1220   47.1540    0.6890   C 0  0  0  0  0  0  0  0  0  0  0  0
  -15.8510   46.6330   -1.7540   O 0  0  0  0  0  0  0  0  0  0  0  0
  -16.0110   44.9610    0.2420   O 0  0  0  0  0  0  0  0  0  0  0  0
  -14.7420   44.4310   -0.1650   C 0  0  0  0  0  0  0  0  0  0  0  0
  -14.6300   42.9500    0.1980   C 0  0  0  0  0  0  0  0  0  0  0  0
  -12.4660   48.1040    2.3230   C 0  0  0  0  0  0  0  0  0  0  0  0
  -11.7450   49.1370    2.9080   C 0  0  0  0  0  0  0  0  0  0  0  0
  -10.9730   53.7830    4.0930   C 0  0  0  0  0  0  0  0  0  0  0  0
   -9.6220   53.3680    3.8990   O 0  0  0  0  0  0  0  0  0  0  0  0
  -11.1640   54.1040    5.5710   C 0  0  0  0  0  0  0  0  0  0  0  0
  -12.3330   54.9660    5.8250   N 0  0  0  0  0  0  0  0  0  0  0  0
  -12.9790   55.4030    4.5810   C 0  0  0  0  0  0  0  0  0  0  0  0
  -12.6380   56.8560    4.3020   C 0  0  0  0  0  0  0  0  0  0  0  0
  -13.2680   57.7880    5.3230   C 0  0  0  0  0  0  0  0  0  0  0  0
  -11.1310   57.0230    4.3200   C 0  0  0  0  0  0  0  0  0  0  0  0
  -13.4030   54.1190    6.7100   S 0  0  0  0  0  0  0  0  0  0  0  0
  -13.2390   52.6510    6.4360   O 0  0  0  0  0  0  0  0  0  0  0  0
  -14.8020   54.5480    6.3500   O 0  0  0  0  0  0  0  0  0  0  0  0
  -13.1100   54.4660    8.4180   C 0  0  0  0  0  0  0  0  0  0  0  0
  -13.6920   55.5880    9.0090   C 0  0  0  0  0  0  0  0  0  0  0  0
  -13.4570   55.8880   10.3460   C 0  0  0  0  0  0  0  0  0  0  0  0
  -12.6310   55.0580   11.0980   C 0  0  0  0  0  0  0  0  0  0  0  0
  -12.3920   55.3320   12.4050   O 0  0  0  0  0  0  0  0  0  0  0  0
  -13.4800   56.0310   13.0120   C 0  0  0  0  0  0  0  0  0  0  0  0
  -12.0450   53.9400   10.5140   C 0  0  0  0  0  0  0  0  0  0  0  0
  -12.2850   53.6430    9.1780   C 0  0  0  0  0  0  0  0  0  0  0  0
  -12.6530   52.8530    1.2670   C 0  0  0  0  0  0  0  0  0  0  0  0
  -13.7690   53.2710    1.5730   O 0  0  0  0  0  0  0  0  0  0  0  0
  -12.2960   52.7110   -0.0360   O 0  0  0  0  0  0  0  0  0  0  0  0
  -13.3470   52.7400   -1.0020   C 0  0  0  0  0  0  0  0  0  0  0  0
  -12.7230   53.3770   -2.2130   C 0  0  0  0  0  0  0  0  0  0  0  0
  -11.9020   52.3460   -2.8110   O 0  0  0  0  0  0  0  0  0  0  0  0
  -12.5920   51.0770   -2.6000   C 0  0  0  0  0  0  0  0  0  0  0  0
  -11.6600   50.1070   -2.0380   O 0  0  0  0  0  0  0  0  0  0  0  0
  -12.4540   49.2760   -1.1610   C 0  0  0  0  0  0  0  0  0  0  0  0
  -13.3350   50.2780   -0.4290   C 0  0  0  0  0  0  0  0  0  0  0  0
  1  4  1  0  0  0  0
  1 40  1  0  0  0  0
  2 49  1  0  0  0  0
  2 43  1  0  0  0  0
  2 46  1  0  0  0  0
  3 10  1  0  0  0  0
  3  9  1  0  0  0  0
  4  5  1  0  0  0  0
  4 21  1  0  0  0  0
  5  6  1  0  0  0  0
  6  7  2  0  0  0  0
  6 20  1  0  0  0  0
  7  8  1  0  0  0  0
  8  9  2  0  0  0  0
  9 19  1  0  0  0  0
 10 11  1  0  0  0  0
 11 16  1  0  0  0  0
 11 12  1  0  0  0  0
 11 15  2  0  0  0  0
 12 13  1  0  0  0  0
 13 14  1  0  0  0  0
 16 17  1  0  0  0  0
 17 18  1  0  0  0  0
 19 20  2  0  0  0  0
 21 23  1  0  0  0  0
 21 22  1  0  0  0  0
 23 24  1  0  0  0  0
 24 29  1  0  0  0  0
 24 25  1  0  0  0  0
 25 26  1  0  0  0  0
 26 28  1  0  0  0  0
 26 27  1  0  0  0  0
 29 31  2  0  0  0  0
 29 32  1  0  0  0  0
 29 30  2  0  0  0  0
 32 39  2  0  0  0  0
 32 33  1  0  0  0  0
 33 34  2  0  0  0  0
 34 35  1  0  0  0  0
 35 36  1  0  0  0  0
 35 38  2  0  0  0  0
 36 37  1  0  0  0  0
 38 39  1  0  0  0  0
 40 41  2  0  0  0  0
 40 42  1  0  0  0  0
 42 43  1  0  0  0  0
 43 44  1  0  0  0  0
 44 45  1  0  0  0  0
 45 46  1  0  0  0  0
 46 47  1  0  0  0  0
 47 48  1  0  0  0  0
 48 49  1  0  0  0  0
M  END
>  <InstanceId>
4M8Y_KGQ_A_201

>  <ChemCompId>
KGQ

>  <PdbId>
4M8Y

>  <ChainId>
A

>  <ResidueNumber>
201

>  <InsertionCode>


>  <Model>
1

>  <AltIds>


>  <MissingHeavyAtoms>
0

>  <ObservedFormula>
C33 N2 O12 P S

>  <Name>
DIETHYL ({4-[(2S,3R)-2-({[(3R,3AS,6AR)-HEXAHYDROFURO[2,3-B]FURAN-3-YLOXY]CARBONYL}AMINO)-3-HYDROXY-4-{ISOBUTYL[(4-METHOXYPHENYL)SULFONYL]AMINO}BUTYL]PHENOXY}METHYL)PHOSPHONATE

>  <SystematicName>
[(3R,3aS,6aR)-2,3,3a,4,5,6a-hexahydrofuro[3,2-d]furan-3-yl] N-[(2S,3R)-1-[4-(diethoxyphosphorylmethoxy)phenyl]-3-hydroxy-4-[(4-methoxyphenyl)sulfonyl-(2-methylpropyl)amino]butan-2-yl]carbamate

>  <Synonyms>


>  <Type>
NON-POLYMER

>  <Formula>
C33 H49 N2 O12 P S

>  <MolecularWeight>
728.787

>  <ModifiedDate>
2011-06-04

>  <Parent>


>  <OneLetterCode>


>  <SubcomponentList>


>  <AmbiguousFlag>


>  <InChI>
InChI=1S/C33H49N2O12PS/c1-6-45-48(38,46-7-2)22-44-26-10-8-24(9-11-26)18-29(34-33(37)47-31-21-43-32-28(31)16-17-42-32)30(36)20-35(19-23(3)4)49(39,40)27-14-12-25(41-5)13-15-27/h8-15,23,28-32,36H,6-7,16-22H2,1-5H3,(H,34,37)/t28-,29-,30+,31-,32+/m0/s1

>  <InChIKey>
FCLYPCIMVVLLRN-FXSYQQGGSA-N

>  <SMILES>
CCOP(=O)(COc1ccc(cc1)C[C@@H]([C@@H](C[N@](CC(C)C)S(=O)(=O)c2ccc(cc2)OC)O)NC(=O)O[C@H]3CO[C@@H]4[C@H]3CCO4)OCC

$$$$
