1OGZ_EQU_A_1126
  RCSB PDB08012015383D
Coordinates from PDB:1OGZ:A:1126 Model:1 without hydrogens
 20 23  0  0  0  0            999 V2000
   20.2120   76.6230   11.8630   C 0  0  0  0  0  0  0  0  0  0  0  0
   18.8620   76.1710   12.0560   C 0  0  0  0  0  0  0  0  0  0  0  0
   17.9430   76.2500   10.9860   C 0  0  0  0  0  0  0  0  0  0  0  0
   18.4260   76.8190    9.6500   C 0  0  0  0  0  0  0  0  0  0  0  0
   19.8110   77.2540    9.5320   C 0  0  0  0  0  0  0  0  0  0  0  0
   20.6770   77.1480   10.6390   C 0  0  0  0  0  0  0  0  0  0  0  0
   16.5700   75.8060   11.1430   C 0  0  0  0  0  0  0  0  0  0  0  0
   15.6460   75.9010   10.0470   C 0  0  0  0  0  0  0  0  0  0  0  0
   16.0660   76.4330    8.7770   C 0  0  0  0  0  0  0  0  0  0  0  0
   17.4910   76.8980    8.5790   C 0  0  0  0  0  0  0  0  0  0  0  0
   15.0750   76.5780    7.5420   C 0  0  0  0  0  0  0  0  0  0  0  0
   15.7160   76.5110    6.0460   C 0  0  0  0  0  0  0  0  0  0  0  0
   16.9140   77.5460    5.9950   C 0  0  0  0  0  0  0  0  0  0  0  0
   17.8790   77.4590    7.1650   C 0  0  0  0  0  0  0  0  0  0  0  0
   13.9170   75.5640    7.3360   C 0  0  0  0  0  0  0  0  0  0  0  0
   13.2700   76.1550    6.0330   C 0  0  0  0  0  0  0  0  0  0  0  0
   14.4620   76.7360    5.2440   C 0  0  0  0  0  0  0  0  0  0  0  0
   16.3350   75.1000    5.5850   C 0  0  0  0  0  0  0  0  0  0  0  0
   21.0620   76.5490   12.8640   O 0  0  0  0  0  0  0  0  0  0  0  0
   14.4110   77.3060    4.1340   O 0  0  0  0  0  0  0  0  0  0  0  0
  1  2  2  0  0  0  0
  1  6  1  0  0  0  0
  1 19  1  0  0  0  0
  2  3  1  0  0  0  0
  3  4  2  0  0  0  0
  3  7  1  0  0  0  0
  4  5  1  0  0  0  0
  4 10  1  0  0  0  0
  5  6  2  0  0  0  0
  7  8  2  0  0  0  0
  8  9  1  0  0  0  0
  9 10  2  0  0  0  0
  9 11  1  0  0  0  0
 10 14  1  0  0  0  0
 11 12  1  0  0  0  0
 11 15  1  0  0  0  0
 12 13  1  0  0  0  0
 12 17  1  0  0  0  0
 12 18  1  0  0  0  0
 13 14  1  0  0  0  0
 15 16  1  0  0  0  0
 16 17  1  0  0  0  0
 17 20  2  0  0  0  0
M  END
>  <InstanceId>
1OGZ_EQU_A_1126

>  <ChemCompId>
EQU

>  <PdbId>
1OGZ

>  <ChainId>
A

>  <ResidueNumber>
1126

>  <InsertionCode>


>  <Model>
1

>  <AltIds>


>  <MissingHeavyAtoms>
0

>  <ObservedFormula>
C18 O2

>  <Name>
EQUILENIN

>  <SystematicName>
(13S,14S)-3-hydroxy-13-methyl-12,14,15,16-tetrahydro-11H-cyclopenta[a]phenanthren-17-one

>  <Synonyms>


>  <Type>
NON-POLYMER

>  <Formula>
C18 H18 O2

>  <MolecularWeight>
266.334

>  <ModifiedDate>
2011-06-04

>  <Parent>


>  <OneLetterCode>


>  <SubcomponentList>


>  <AmbiguousFlag>
N

>  <InChI>
InChI=1S/C18H18O2/c1-18-9-8-14-13-5-3-12(19)10-11(13)2-4-15(14)16(18)6-7-17(18)20/h2-5,10,16,19H,6-9H2,1H3/t16-,18-/m0/s1

>  <InChIKey>
PDRGHUMCVRDZLQ-WMZOPIPTSA-N

>  <SMILES>
C[C@]12CCc3c4ccc(cc4ccc3[C@@H]1CCC2=O)O

$$$$
