4FLP_JQ1_A_201
  RCSB PDB08012021433D
Coordinates from PDB:4FLP:A:201 Model:1 without hydrogens
 31 34  0  0  0  0            999 V2000
   10.1330   -6.3130  -28.3510   C 0  0  0  0  0  0  0  0  0  0  0  0
    5.3720   -3.5490  -30.7030   C 0  0  0  0  0  0  0  0  0  0  0  0
    5.9480   -1.2280  -28.5640   C 0  0  0  0  0  0  0  0  0  0  0  0
    8.4030    2.1910  -29.8170   C 0  0  0  0  0  0  0  0  0  0  0  0
    9.2960    2.8830  -27.5500   C 0  0  0  0  0  0  0  0  0  0  0  0
   10.4930    3.5630  -29.6580   C 0  0  0  0  0  0  0  0  0  0  0  0
   11.9400    1.9830  -27.7900   O 0  0  0  0  0  0  0  0  0  0  0  0
    4.8890   -0.2050  -22.6460  Cl 0  0  0  0  0  0  0  0  0  0  0  0
    7.0570    0.4050  -24.2760   C 0  0  0  0  0  0  0  0  0  0  0  0
    5.8600   -1.6510  -24.6330   C 0  0  0  0  0  0  0  0  0  0  0  0
    7.8700    0.0530  -25.3860   C 0  0  0  0  0  0  0  0  0  0  0  0
    6.6630   -1.9760  -25.7050   C 0  0  0  0  0  0  0  0  0  0  0  0
   11.9820   -0.4210  -28.0220   C 0  0  0  0  0  0  0  0  0  0  0  0
    9.7800   -1.0640  -27.1710   N 0  0  0  0  0  0  0  0  0  0  0  0
   12.0590   -4.7300  -27.8660   N 0  0  0  0  0  0  0  0  0  0  0  0
   12.2240   -3.4760  -27.8100   N 0  0  0  0  0  0  0  0  0  0  0  0
   10.2810    1.1430  -28.9460   O 0  0  0  0  0  0  0  0  0  0  0  0
    8.0510   -4.3760  -29.9190   S 0  0  0  0  0  0  0  0  0  0  0  0
   11.4250    0.9880  -28.2450   C 0  0  0  0  0  0  0  0  0  0  0  0
    8.5260   -1.5120  -27.2220   C 0  0  0  0  0  0  0  0  0  0  0  0
    6.0260   -0.4570  -23.9370   C 0  0  0  0  0  0  0  0  0  0  0  0
   10.7640   -4.9780  -28.1790   C 0  0  0  0  0  0  0  0  0  0  0  0
    7.6790   -1.1350  -26.1310   C 0  0  0  0  0  0  0  0  0  0  0  0
    6.6590   -3.3280  -29.8240   C 0  0  0  0  0  0  0  0  0  0  0  0
    6.8950   -2.3410  -28.9140   C 0  0  0  0  0  0  0  0  0  0  0  0
   11.0780   -2.8700  -28.1120   C 0  0  0  0  0  0  0  0  0  0  0  0
    8.1220   -2.4430  -28.2320   C 0  0  0  0  0  0  0  0  0  0  0  0
    8.8970   -3.5210  -28.6960   C 0  0  0  0  0  0  0  0  0  0  0  0
   10.7850   -1.3570  -28.2050   C 0  0  0  0  0  0  0  0  0  0  0  0
   10.1470   -3.8080  -28.3230   N 0  3  0  0  0  0  0  0  0  0  0  0
    9.6500    2.4610  -28.9800   C 0  0  0  0  0  0  0  0  0  0  0  0
  1 22  1  0  0  0  0
  2 24  1  0  0  0  0
  3 25  1  0  0  0  0
  4 31  1  0  0  0  0
  5 31  1  0  0  0  0
  6 31  1  0  0  0  0
  7 19  2  0  0  0  0
  8 21  1  0  0  0  0
  9 11  2  0  0  0  0
  9 21  1  0  0  0  0
 10 12  1  0  0  0  0
 10 21  2  0  0  0  0
 11 23  1  0  0  0  0
 12 23  2  0  0  0  0
 13 19  1  0  0  0  0
 13 29  1  0  0  0  0
 14 20  2  0  0  0  0
 14 29  1  0  0  0  0
 15 16  1  0  0  0  0
 15 22  2  0  0  0  0
 16 26  1  0  0  0  0
 17 19  1  0  0  0  0
 17 31  1  0  0  0  0
 18 24  1  0  0  0  0
 18 28  1  0  0  0  0
 20 23  1  0  0  0  0
 20 27  1  0  0  0  0
 22 30  1  0  0  0  0
 24 25  2  0  0  0  0
 25 27  1  0  0  0  0
 26 29  1  0  0  0  0
 26 30  2  0  0  0  0
 27 28  2  0  0  0  0
 28 30  1  0  0  0  0
M  CHG  1  30   1
M  END
>  <InstanceId>
4FLP_JQ1_A_201

>  <ChemCompId>
JQ1

>  <PdbId>
4FLP

>  <ChainId>
A

>  <ResidueNumber>
201

>  <InsertionCode>


>  <Model>
1

>  <AltIds>


>  <MissingHeavyAtoms>
0

>  <ObservedFormula>
C23 N4 O2 S Cl

>  <Name>
(6S)-6-(2-tert-butoxy-2-oxoethyl)-4-(4-chlorophenyl)-2,3,9-trimethyl-6,7-dihydrothieno[3,2-f][1,2,4]triazolo[4,3-a][1,4]diazepin-10-ium

>  <SystematicName>


>  <Synonyms>


>  <Type>
NON-POLYMER

>  <Formula>
C23 H26 Cl N4 O2 S

>  <MolecularWeight>
457.996

>  <ModifiedDate>
2011-06-04

>  <Parent>


>  <OneLetterCode>


>  <SubcomponentList>


>  <AmbiguousFlag>
N

>  <InChI>
InChI=1S/C23H25ClN4O2S/c1-12-13(2)31-22-19(12)20(15-7-9-16(24)10-8-15)25-17(11-18(29)30-23(4,5)6)21-27-26-14(3)28(21)22/h7-10,17H,11H2,1-6H3/p+1/t17-/m0/s1

>  <InChIKey>
DNVXATUJJDPFDM-KRWDZBQOSA-O

>  <SMILES>
Cc1c(sc-2c1C(=N[C@H](c3[n+]2c(n[nH]3)C)CC(=O)OC(C)(C)C)c4ccc(cc4)Cl)C

$$$$
