3IJH_KO2_B_214
  RCSB PDB08012019203D
Coordinates from PDB:3IJH:B:214 Model:1 without hydrogens
 20 20  0  0  0  0            999 V2000
   -9.6380    0.4070   -0.0820   C 0  0  0  0  0  0  0  0  0  0  0  0
   -8.7210    0.7670    0.6950   O 0  0  0  0  0  0  0  0  0  0  0  0
   -9.2740   -0.5000   -1.2580   C 0  0  0  0  0  0  0  0  0  0  0  0
  -10.4450   -0.6430   -2.0960   O 0  0  0  0  0  0  0  0  0  0  0  0
  -10.2770   -1.5500   -3.2070   C 0  0  0  0  0  0  0  0  0  0  0  0
  -11.5590   -1.6080   -4.0400   C 0  0  0  0  0  0  0  0  0  0  0  0
  -11.8360   -0.2110   -4.6140   C 0  0  0  0  0  0  0  0  0  0  0  0
  -13.0230   -0.2280   -5.4060   O 0  0  0  0  0  0  0  0  0  0  0  0
  -11.4190   -2.5550   -5.1000   O 0  0  0  0  0  0  0  0  0  0  0  0
  -10.0220   -2.9640   -2.6570   C 0  0  0  0  0  0  0  0  0  0  0  0
  -11.1460   -3.3990   -1.8790   O 0  0  0  0  0  0  0  0  0  0  0  0
   -8.7490   -2.8820   -1.8350   C 0  0  0  0  0  0  0  0  0  0  0  0
   -8.4880   -4.1600   -1.2500   O 0  0  0  0  0  0  0  0  0  0  0  0
   -8.9290   -1.8740   -0.6850   C 0  0  0  0  0  0  0  0  0  0  0  0
   -9.8980   -2.3030    0.2650   O 0  0  0  0  0  0  0  0  0  0  0  0
   -8.2770    0.0160   -2.1240   O 0  0  0  0  0  0  0  0  0  0  0  0
   -4.9220    1.2150   -2.8320   C 0  0  0  0  0  0  0  0  0  0  0  0
   -6.3900    0.8420   -2.9790   C 0  0  0  0  0  0  0  0  0  0  0  0
   -6.9540    0.2490   -1.6810   C 0  0  0  0  0  0  0  0  0  0  0  0
  -10.8580    0.6610    0.0520   O 0  0  0  0  0  0  0  0  0  0  0  0
 20  1  2  0  0  0  0
  2  1  1  0  0  0  0
  1  3  1  0  0  0  0
 14  3  1  0  0  0  0
  3  4  1  0  0  0  0
  3 16  1  0  0  0  0
  4  5  1  0  0  0  0
 10  5  1  0  0  0  0
  5  6  1  0  0  0  0
  6  9  1  0  0  0  0
  6  7  1  0  0  0  0
  7  8  1  0  0  0  0
 11 10  1  0  0  0  0
 12 10  1  0  0  0  0
 13 12  1  0  0  0  0
 14 12  1  0  0  0  0
 15 14  1  0  0  0  0
 16 19  1  0  0  0  0
 18 17  2  0  0  0  0
 19 18  1  0  0  0  0
M  END
>  <InstanceId>
3IJH_KO2_B_214

>  <ChemCompId>
KO2

>  <PdbId>
3IJH

>  <ChainId>
B

>  <ResidueNumber>
214

>  <InsertionCode>


>  <Model>
1

>  <AltIds>


>  <MissingHeavyAtoms>
0

>  <ObservedFormula>
C11 O9

>  <Name>
prop-2-en-1-yl D-glycero-alpha-D-talo-oct-2-ulopyranosidonic acid

>  <SystematicName>
(2R,3S,4S,5R,6R)-6-[(1R)-1,2-dihydroxyethyl]-3,4,5-trihydroxy-2-prop-2-enoxy-oxane-2-carboxylic acid

>  <Synonyms>
prop-2-en-1-yl D-glycero-alpha-D-talo-oct-2-ulosidonic acid; prop-2-en-1-yl D-glycero-D-talo-oct-2-ulosidonic acid; prop-2-en-1-yl D-glycero-talo-oct-2-ulosidonic acid

>  <Type>
D-saccharide, alpha linking

>  <Formula>
C11 H18 O9

>  <MolecularWeight>
294.255

>  <ModifiedDate>
2020-07-17

>  <Parent>
KDO

>  <OneLetterCode>


>  <SubcomponentList>


>  <AmbiguousFlag>
N

>  <InChI>
InChI=1S/C11H18O9/c1-2-3-19-11(10(17)18)9(16)7(15)6(14)8(20-11)5(13)4-12/h2,5-9,12-16H,1,3-4H2,(H,17,18)/t5-,6-,7+,8-,9+,11-/m1/s1

>  <InChIKey>
MJWRJGHIYDIAQR-RUEXUQCSSA-N

>  <SMILES>
C=CCO[C@@]1([C@H]([C@H]([C@H]([C@H](O1)[C@@H](CO)O)O)O)O)C(=O)O

$$$$
