2HMV_ADP_A_601
  RCSB PDB08012017083D
Coordinates from PDB:2HMV:A:601 Model:1 without hydrogens
 27 29  0  0  0  0            999 V2000
  113.2460   48.3660   16.9490   P 0  0  0  0  0  0  0  0  0  0  0  0
  114.2380   48.9890   17.8610   O 0  0  0  0  0  0  0  0  0  0  0  0
  112.3360   47.3160   17.7720   O 0  0  0  0  0  0  0  0  0  0  0  0
  114.0200   47.5760   15.7780   O 0  0  0  0  0  0  0  0  0  0  0  0
  111.4900   50.3560   17.3990   P 0  0  0  0  0  0  0  0  0  0  0  0
  111.1080   49.4900   18.5390   O 0  0  0  0  0  0  0  0  0  0  0  0
  112.4170   51.5670   17.9370   O 0  0  0  0  0  0  0  0  0  0  0  0
  112.3110   49.5150   16.2730   O 0  0  0  0  0  0  0  0  0  0  0  0
  110.1160   50.9120   16.7290   O 0  0  0  0  0  0  0  0  0  0  0  0
  110.3940   52.1110   16.0130   C 0  0  0  0  0  0  0  0  0  0  0  0
  109.9650   51.9800   14.5470   C 0  0  0  0  0  0  0  0  0  0  0  0
  108.9600   52.9990   14.2190   O 0  0  0  0  0  0  0  0  0  0  0  0
  111.1700   52.2060   13.5970   C 0  0  0  0  0  0  0  0  0  0  0  0
  111.1270   51.2820   12.5010   O 0  0  0  0  0  0  0  0  0  0  0  0
  110.9990   53.6640   13.1670   C 0  0  0  0  0  0  0  0  0  0  0  0
  111.6250   53.9430   11.9170   O 0  0  0  0  0  0  0  0  0  0  0  0
  109.4770   53.8250   13.1300   C 0  0  0  0  0  0  0  0  0  0  0  0
  109.0940   55.2360   13.3070   N 0  0  0  0  0  0  0  0  0  0  0  0
  109.6030   56.1370   14.2170   C 0  0  0  0  0  0  0  0  0  0  0  0
  109.0230   57.2920   14.0780   N 0  0  0  0  0  0  0  0  0  0  0  0
  108.1080   57.2170   13.0820   C 0  0  0  0  0  0  0  0  0  0  0  0
  107.1920   58.1260   12.4810   C 0  0  0  0  0  0  0  0  0  0  0  0
  107.1020   59.4350   12.9280   N 0  0  0  0  0  0  0  0  0  0  0  0
  106.4050   57.6840   11.4670   N 0  0  0  0  0  0  0  0  0  0  0  0
  106.4760   56.4190   11.0210   C 0  0  0  0  0  0  0  0  0  0  0  0
  107.3280   55.5330   11.5580   N 0  0  0  0  0  0  0  0  0  0  0  0
  108.1490   55.8880   12.5710   C 0  0  0  0  0  0  0  0  0  0  0  0
  1  2  2  0  0  0  0
  1  3  1  0  0  0  0
  1  4  1  0  0  0  0
  1  8  1  0  0  0  0
  5  6  2  0  0  0  0
  5  7  1  0  0  0  0
  5  8  1  0  0  0  0
  5  9  1  0  0  0  0
  9 10  1  0  0  0  0
 10 11  1  0  0  0  0
 11 12  1  0  0  0  0
 11 13  1  0  0  0  0
 12 17  1  0  0  0  0
 13 14  1  0  0  0  0
 13 15  1  0  0  0  0
 15 16  1  0  0  0  0
 15 17  1  0  0  0  0
 17 18  1  0  0  0  0
 18 19  1  0  0  0  0
 18 27  1  0  0  0  0
 19 20  2  0  0  0  0
 20 21  1  0  0  0  0
 21 22  1  0  0  0  0
 21 27  2  0  0  0  0
 22 23  1  0  0  0  0
 22 24  2  0  0  0  0
 24 25  1  0  0  0  0
 25 26  2  0  0  0  0
 26 27  1  0  0  0  0
M  END
>  <InstanceId>
2HMV_ADP_A_601

>  <ChemCompId>
ADP

>  <PdbId>
2HMV

>  <ChainId>
A

>  <ResidueNumber>
601

>  <InsertionCode>


>  <Model>
1

>  <AltIds>


>  <MissingHeavyAtoms>
0

>  <ObservedFormula>
C10 N5 O10 P2

>  <Name>
ADENOSINE-5'-DIPHOSPHATE

>  <SystematicName>
[(2R,3S,4R,5R)-5-(6-aminopurin-9-yl)-3,4-dihydroxy-oxolan-2-yl]methyl phosphono hydrogen phosphate

>  <Synonyms>


>  <Type>
NON-POLYMER

>  <Formula>
C10 H15 N5 O10 P2

>  <MolecularWeight>
427.201

>  <ModifiedDate>
2011-06-04

>  <Parent>
A

>  <OneLetterCode>


>  <SubcomponentList>


>  <AmbiguousFlag>
N

>  <InChI>
InChI=1S/C10H15N5O10P2/c11-8-5-9(13-2-12-8)15(3-14-5)10-7(17)6(16)4(24-10)1-23-27(21,22)25-26(18,19)20/h2-4,6-7,10,16-17H,1H2,(H,21,22)(H2,11,12,13)(H2,18,19,20)/t4-,6-,7-,10-/m1/s1

>  <InChIKey>
XTWYTFMLZFPYCI-KQYNXXCUSA-N

>  <SMILES>
c1nc(c2c(n1)n(cn2)[C@H]3[C@@H]([C@@H]([C@H](O3)CO[P@](=O)(O)OP(=O)(O)O)O)O)N

$$$$
