187L_PXY_A_400
  RCSB PDB08012014323D
Coordinates from PDB:187L:A:400 Model:1 without hydrogens
  8  8  0  0  0  0            999 V2000
   26.6450    6.1410    4.6680   C 0  0  0  0  0  0  0  0  0  0  0  0
   26.7810    5.6710    3.4440   C 0  0  0  0  0  0  0  0  0  0  0  0
   27.2700    6.4720    2.4350   C 0  0  0  0  0  0  0  0  0  0  0  0
   27.5830    7.7750    2.6860   C 0  0  0  0  0  0  0  0  0  0  0  0
   27.4420    8.2660    3.9390   C 0  0  0  0  0  0  0  0  0  0  0  0
   26.9790    7.4340    4.9470   C 0  0  0  0  0  0  0  0  0  0  0  0
   26.1370    5.2260    5.7700   C 0  0  0  0  0  0  0  0  0  0  0  0
   28.1020    8.6640    1.5520   C 0  0  0  0  0  0  0  0  0  0  0  0
  1  2  2  0  0  0  0
  1  6  1  0  0  0  0
  1  7  1  0  0  0  0
  2  3  1  0  0  0  0
  3  4  2  0  0  0  0
  4  5  1  0  0  0  0
  4  8  1  0  0  0  0
  5  6  2  0  0  0  0
M  END
>  <InstanceId>
187L_PXY_A_400

>  <ChemCompId>
PXY

>  <PdbId>
187L

>  <ChainId>
A

>  <ResidueNumber>
400

>  <InsertionCode>


>  <Model>
1

>  <AltIds>


>  <MissingHeavyAtoms>
0

>  <ObservedFormula>
C8

>  <Name>
PARA-XYLENE

>  <SystematicName>
1,4-dimethylbenzene

>  <Synonyms>


>  <Type>
NON-POLYMER

>  <Formula>
C8 H10

>  <MolecularWeight>
106.165

>  <ModifiedDate>
2011-06-04

>  <Parent>


>  <OneLetterCode>


>  <SubcomponentList>


>  <AmbiguousFlag>
N

>  <InChI>
InChI=1S/C8H10/c1-7-3-5-8(2)6-4-7/h3-6H,1-2H3

>  <InChIKey>
URLKBWYHVLBVBO-UHFFFAOYSA-N

>  <SMILES>
Cc1ccc(cc1)C

$$$$
