2X91_LPR_A_1615
  RCSB PDB08012018143D
Coordinates from PDB:2X91:A:1615 Model:1 without hydrogens
 29 30  0  0  0  0            999 V2000
   27.6470   -1.4010   46.8380   O 0  0  0  0  0  0  0  0  0  0  0  0
   25.7080   -1.5690   45.8300   O 0  0  0  0  0  0  0  0  0  0  0  0
   26.9530   -1.3680   45.8110   C 0  0  0  0  0  0  0  0  0  0  0  0
   27.6030   -1.0720   44.4550   C 0  0  0  0  0  0  0  0  0  0  0  0
   27.2030    0.3170   43.8640   C 0  0  0  0  0  0  0  0  0  0  0  0
   27.8870    1.4460   44.6210   C 0  0  0  0  0  0  0  0  0  0  0  0
   27.5990    2.8670   44.2280   C 0  0  0  0  0  0  0  0  0  0  0  0
   28.1750    3.9280   44.9920   C 0  0  0  0  0  0  0  0  0  0  0  0
   27.9260    5.2860   44.6480   C 0  0  0  0  0  0  0  0  0  0  0  0
   27.0840    5.5930   43.5280   C 0  0  0  0  0  0  0  0  0  0  0  0
   26.4990    4.5380   42.7600   C 0  0  0  0  0  0  0  0  0  0  0  0
   26.7580    3.1800   43.1080   C 0  0  0  0  0  0  0  0  0  0  0  0
   27.2260   -2.2050   43.5020   N 0  0  0  0  0  0  0  0  0  0  0  0
   27.5510   -7.4620   38.8350   N 0  0  0  0  0  0  0  0  0  0  0  0
   28.9880   -3.8170   43.9850   C 0  0  0  0  0  0  0  0  0  0  0  0
   27.4320   -3.6340   43.9290   C 0  0  0  0  0  0  0  0  0  0  0  0
   29.7170   -3.0590   43.2660   O 0  0  0  0  0  0  0  0  0  0  0  0
   26.9060   -4.6770   42.9770   C 0  0  0  0  0  0  0  0  0  0  0  0
   27.5120   -4.7990   41.6610   C 0  0  0  0  0  0  0  0  0  0  0  0
   26.9470   -5.9390   40.6730   C 0  0  0  0  0  0  0  0  0  0  0  0
   28.0000   -6.3890   39.7950   C 0  0  0  0  0  0  0  0  0  0  0  0
   30.9370   -5.8120   42.5300   O 0  0  0  0  0  0  0  0  0  0  0  0
   32.6950   -4.6030   43.0570   O 0  0  0  0  0  0  0  0  0  0  0  0
   29.5760   -4.7520   44.7620   N 0  0  0  0  0  0  0  0  0  0  0  0
   31.0830   -4.8930   44.7430   C 0  0  0  0  0  0  0  0  0  0  0  0
   31.2840   -6.1180   45.6500   C 0  0  0  0  0  0  0  0  0  0  0  0
   30.1550   -6.2620   46.4070   C 0  0  0  0  0  0  0  0  0  0  0  0
   28.9680   -5.7550   45.6810   C 0  0  0  0  0  0  0  0  0  0  0  0
   31.5740   -5.1700   43.3080   C 0  0  0  0  0  0  0  0  0  0  0  0
 17 15  2  0  0  0  0
  1  3  1  0  0  0  0
  2  3  2  0  0  0  0
 22 29  1  0  0  0  0
 23 29  2  0  0  0  0
 13 16  1  0  0  0  0
 13  4  1  0  0  0  0
 24 15  1  0  0  0  0
 24 25  1  0  0  0  0
 24 28  1  0  0  0  0
 14 21  1  0  0  0  0
 15 16  1  0  0  0  0
 16 18  1  0  0  0  0
  3  4  1  0  0  0  0
  4  5  1  0  0  0  0
 25 26  1  0  0  0  0
 25 29  1  0  0  0  0
 26 27  1  0  0  0  0
 27 28  1  0  0  0  0
 18 19  1  0  0  0  0
 19 20  1  0  0  0  0
 20 21  1  0  0  0  0
  5  6  1  0  0  0  0
  6  7  1  0  0  0  0
  7  8  2  0  0  0  0
  7 12  1  0  0  0  0
  8  9  1  0  0  0  0
  9 10  2  0  0  0  0
 10 11  1  0  0  0  0
 11 12  2  0  0  0  0
M  END
>  <InstanceId>
2X91_LPR_A_1615

>  <ChemCompId>
LPR

>  <PdbId>
2X91

>  <ChainId>
A

>  <ResidueNumber>
1615

>  <InsertionCode>


>  <Model>
1

>  <AltIds>


>  <MissingHeavyAtoms>
0

>  <ObservedFormula>
C21 N3 O5

>  <Name>
[N2-[(S)-1-CARBOXY-3-PHENYLPROPYL]-L-LYSYL-L-PROLINE

>  <SystematicName>
(2S)-1-[(2S)-6-amino-2-[[(2S)-1-hydroxy-1-oxo-4-phenyl-butan-2-yl]amino]hexanoyl]pyrrolidine-2-carboxylic acid

>  <Synonyms>
LISINOPRIL

>  <Type>
NON-POLYMER

>  <Formula>
C21 H31 N3 O5

>  <MolecularWeight>
405.488

>  <ModifiedDate>
2020-06-17

>  <Parent>


>  <OneLetterCode>


>  <SubcomponentList>
CLT LYS PRO

>  <AmbiguousFlag>
N

>  <InChI>
InChI=1S/C21H31N3O5/c22-13-5-4-9-16(19(25)24-14-6-10-18(24)21(28)29)23-17(20(26)27)12-11-15-7-2-1-3-8-15/h1-3,7-8,16-18,23H,4-6,9-14,22H2,(H,26,27)(H,28,29)/t16-,17-,18-/m0/s1

>  <InChIKey>
RLAWWYSOJDYHDC-BZSNNMDCSA-N

>  <SMILES>
c1ccc(cc1)CC[C@@H](C(=O)O)N[C@@H](CCCCN)C(=O)N2CCC[C@H]2C(=O)O

$$$$
