5E89_TD2_A_302
  RCSB PDB08022001113D
Coordinates from PDB:5E89:A:302 Model:1 without hydrogens
 45 50  0  0  0  0            999 V2000
   20.1350   -8.9640   -1.1330   C 0  0  0  0  0  0  0  0  0  0  0  0
   18.6600   -9.2400   -1.0180   C 0  0  0  0  0  0  0  0  0  0  0  0
   17.9000   -7.9980   -1.3930   C 0  0  0  0  0  0  0  0  0  0  0  0
   18.4200   -6.8320   -0.5630   C 0  0  0  0  0  0  0  0  0  0  0  0
   19.9150   -6.6800   -0.7500   C 0  0  0  0  0  0  0  0  0  0  0  0
   20.4570   -5.5250    0.0690   C 0  0  0  0  0  0  0  0  0  0  0  0
   14.3160   -8.1250   -1.8620   N 0  0  0  0  0  0  0  0  0  0  0  0
   27.4460  -11.1400    4.1170   C 0  0  0  0  0  0  0  0  0  0  0  0
   26.7750  -12.2520    4.5750   C 0  0  0  0  0  0  0  0  0  0  0  0
   27.0810  -12.8110    5.7990   C 0  0  0  0  0  0  0  0  0  0  0  0
   22.5870   -9.9570   -0.9070   C 0  0  0  0  0  0  0  0  0  0  0  0
   20.9370  -10.3910   -0.5520   S 0  0  0  0  0  0  0  0  0  0  0  0
   20.5290   -7.8830   -0.3320   O 0  0  0  0  0  0  0  0  0  0  0  0
   23.0400  -10.7940   -1.9730   O 0  0  0  0  0  0  0  0  0  0  0  0
   24.3670  -10.5210   -2.3450   C 0  0  0  0  0  0  0  0  0  0  0  0
   24.7720  -11.4040   -3.5260   C 0  0  0  0  0  0  0  0  0  0  0  0
   21.8370   -5.4190   -0.2000   O 0  0  0  0  0  0  0  0  0  0  0  0
   24.1550  -10.8450   -4.6760   O 0  0  0  0  0  0  0  0  0  0  0  0
   25.3340  -10.7410   -1.2050   C 0  0  0  0  0  0  0  0  0  0  0  0
   18.1130   -7.0370    0.8130   O 0  0  0  0  0  0  0  0  0  0  0  0
   25.4880  -12.1230   -0.8720   O 0  0  0  0  0  0  0  0  0  0  0  0
   24.8510   -9.9500   -0.0180   C 0  0  0  0  0  0  0  0  0  0  0  0
   23.4090  -10.2580    0.3230   C 0  0  0  0  0  0  0  0  0  0  0  0
   23.0010   -9.4560    1.4310   O 0  0  0  0  0  0  0  0  0  0  0  0
   18.3020  -10.2790   -1.9250   O 0  0  0  0  0  0  0  0  0  0  0  0
   25.7480  -10.1660    1.1110   N 0  0  0  0  0  0  0  0  0  0  0  0
   25.8280  -10.9500    2.1560   C 0  0  0  0  0  0  0  0  0  0  0  0
   26.9870  -10.5810    2.8240   C 0  0  0  0  0  0  0  0  0  0  0  0
   27.5630   -9.5550    2.1910   N 0  0  0  0  0  0  0  0  0  0  0  0
   26.7980   -9.2780    1.0820   N 0  0  0  0  0  0  0  0  0  0  0  0
   16.4540   -8.1500   -1.1880   N 0  0  0  0  0  0  0  0  0  0  0  0
   15.6330   -7.9540   -2.3000   N 0  0  0  0  0  0  0  0  0  0  0  0
   14.4180   -8.4060   -0.5500   C 0  0  0  0  0  0  0  0  0  0  0  0
   15.7320   -8.4280   -0.1380   C 0  0  0  0  0  0  0  0  0  0  0  0
   28.0520  -12.2230    6.5890   C 0  0  0  0  0  0  0  0  0  0  0  0
   28.6970  -11.0670    6.1570   C 0  0  0  0  0  0  0  0  0  0  0  0
   28.3830  -10.5030    4.9240   C 0  0  0  0  0  0  0  0  0  0  0  0
   13.1490   -8.6480    0.2020   C 0  0  0  0  0  0  0  0  0  0  0  0
   11.9830   -9.0100   -0.4640   C 0  0  0  0  0  0  0  0  0  0  0  0
   10.8150   -9.2330    0.2520   C 0  0  0  0  0  0  0  0  0  0  0  0
   10.8140   -9.1050    1.6370   C 0  0  0  0  0  0  0  0  0  0  0  0
   11.9680   -8.7660    2.2880   C 0  0  0  0  0  0  0  0  0  0  0  0
   13.1340   -8.5070    1.5890   C 0  0  0  0  0  0  0  0  0  0  0  0
   26.3790  -13.9440    6.0710   F 0  0  0  0  0  0  0  0  0  0  0  0
   11.9080   -8.6460    3.6260   F 0  0  0  0  0  0  0  0  0  0  0  0
 18 16  1  0  0  0  0
 16 15  1  0  0  0  0
 15 14  1  0  0  0  0
 15 19  1  0  0  0  0
 14 11  1  0  0  0  0
 17  6  1  0  0  0  0
  5  6  1  0  0  0  0
  5 13  1  0  0  0  0
  5  4  1  0  0  0  0
 19 21  1  0  0  0  0
 19 22  1  0  0  0  0
 13  1  1  0  0  0  0
  4  3  1  0  0  0  0
  4 20  1  0  0  0  0
  1  2  1  0  0  0  0
  1 12  1  0  0  0  0
  3  2  1  0  0  0  0
  3 31  1  0  0  0  0
 32 31  1  0  0  0  0
 32  7  2  0  0  0  0
 11 12  1  0  0  0  0
 11 23  1  0  0  0  0
 25  2  1  0  0  0  0
 22 23  1  0  0  0  0
 22 26  1  0  0  0  0
 31 34  1  0  0  0  0
  7 33  1  0  0  0  0
 23 24  1  0  0  0  0
 30 26  1  0  0  0  0
 30 29  2  0  0  0  0
 26 27  1  0  0  0  0
 34 33  2  0  0  0  0
 29 28  1  0  0  0  0
 33 38  1  0  0  0  0
 27 28  2  0  0  0  0
 28  8  1  0  0  0  0
 39 38  2  0  0  0  0
 39 40  1  0  0  0  0
 38 43  1  0  0  0  0
 40 41  2  0  0  0  0
  8  9  2  0  0  0  0
  8 37  1  0  0  0  0
 43 42  2  0  0  0  0
  9 10  1  0  0  0  0
 37 36  2  0  0  0  0
 41 42  1  0  0  0  0
 42 45  1  0  0  0  0
 10 44  1  0  0  0  0
 10 35  2  0  0  0  0
 36 35  1  0  0  0  0
M  END
>  <InstanceId>
5E89_TD2_A_302

>  <ChemCompId>
TD2

>  <PdbId>
5E89

>  <ChainId>
A

>  <ResidueNumber>
302

>  <InsertionCode>


>  <Model>
1

>  <AltIds>


>  <MissingHeavyAtoms>
0

>  <ObservedFormula>
C28 N6 O8 S F2

>  <Name>
3-deoxy-3-[4-(3-fluorophenyl)-1H-1,2,3-triazol-1-yl]-beta-D-galactopyranosyl 3-deoxy-3-[4-(3-fluorophenyl)-1H-1,2,3-triazol-1-yl]-1-thio-beta-D-galactopyranoside

>  <SystematicName>
(2S,3R,4S,5R,6R)-4-[4-(3-fluorophenyl)-1,2,3-triazol-1-yl]-2-[(2S,3R,4S,5R,6R)-4-[4-(3-fluorophenyl)-1,2,3-triazol-1-yl]-6-(hydroxymethyl)-3,5-bis(oxidanyl)oxan-2-yl]sulfanyl-6-(hydroxymethyl)oxane-3,5-diol

>  <Synonyms>


>  <Type>
NON-POLYMER

>  <Formula>
C28 H30 F2 N6 O8 S

>  <MolecularWeight>
648.635

>  <ModifiedDate>
2016-04-22

>  <Parent>


>  <OneLetterCode>


>  <SubcomponentList>


>  <AmbiguousFlag>
N

>  <InChI>
InChI=1S/C28H30F2N6O8S/c29-15-5-1-3-13(7-15)17-9-35(33-31-17)21-23(39)19(11-37)43-27(25(21)41)45-28-26(42)22(24(40)20(12-38)44-28)36-10-18(32-34-36)14-4-2-6-16(30)8-14/h1-10,19-28,37-42H,11-12H2/t19-,20-,21+,22+,23+,24+,25-,26-,27+,28+/m1/s1

>  <InChIKey>
YGIDGBAHDZEYMT-MQFIMZJJSA-N

>  <SMILES>
c1cc(cc(c1)F)c2cn(nn2)[C@H]3[C@H]([C@H](O[C@H]([C@@H]3O)S[C@H]4[C@@H]([C@H]([C@H]([C@H](O4)CO)O)n5cc(nn5)c6cccc(c6)F)O)CO)O

$$$$
