2POV_I7B_A_1000
  RCSB PDB08012017443D
Coordinates from PDB:2POV:A:1000 Model:1 without hydrogens
 16 16  0  0  0  0            999 V2000
   -5.0010    1.8880   14.4280   C 0  0  0  0  0  0  0  0  0  0  0  0
   -4.6880    2.8680   13.4690   C 0  0  0  0  0  0  0  0  0  0  0  0
   -4.9860    4.2330   13.6890   C 0  0  0  0  0  0  0  0  0  0  0  0
   -5.6030    4.5960   14.8950   C 0  0  0  0  0  0  0  0  0  0  0  0
   -5.9280    3.6290   15.8700   C 0  0  0  0  0  0  0  0  0  0  0  0
   -5.6210    2.2630   15.6310   C 0  0  0  0  0  0  0  0  0  0  0  0
   -3.9260    2.3540   11.9650   S 0  0  0  0  0  0  0  0  0  0  0  0
   -2.4210    2.8280   11.9870   N 0  0  0  0  0  0  0  0  0  0  0  0
   -3.9220    0.9300   11.9350   O 0  0  0  0  0  0  0  0  0  0  0  0
   -4.6000    3.0620   10.9260   O 0  0  0  0  0  0  0  0  0  0  0  0
   -5.9990    0.9650   16.7970   S 0  0  0  0  0  0  0  0  0  0  0  0
   -5.4320   -0.3990   16.2560   N 0  0  0  0  0  0  0  0  0  0  0  0
   -5.3270    1.2620   18.0240   O 0  0  0  0  0  0  0  0  0  0  0  0
   -7.4270    0.8620   16.8030   O 0  0  0  0  0  0  0  0  0  0  0  0
   -4.6950    5.2290   12.7640   N 0  0  0  0  0  0  0  0  0  0  0  0
   -6.6660    4.1030   17.3040  Cl 0  0  0  0  0  0  0  0  0  0  0  0
 10  7  2  0  0  0  0
  9  7  2  0  0  0  0
  7  8  1  0  0  0  0
  7  2  1  0  0  0  0
 15  3  1  0  0  0  0
  2  3  2  0  0  0  0
  2  1  1  0  0  0  0
  3  4  1  0  0  0  0
  1  6  2  0  0  0  0
  4  5  2  0  0  0  0
  6  5  1  0  0  0  0
  6 11  1  0  0  0  0
  5 16  1  0  0  0  0
 12 11  1  0  0  0  0
 11 14  2  0  0  0  0
 11 13  2  0  0  0  0
M  END
>  <InstanceId>
2POV_I7B_A_1000

>  <ChemCompId>
I7B

>  <PdbId>
2POV

>  <ChainId>
A

>  <ResidueNumber>
1000

>  <InsertionCode>


>  <Model>
1

>  <AltIds>


>  <MissingHeavyAtoms>
0

>  <ObservedFormula>
C6 N3 O4 S2 Cl

>  <Name>
4-AMINO-6-CHLOROBENZENE-1,3-DISULFONAMIDE

>  <SystematicName>
4-amino-6-chloro-benzene-1,3-disulfonamide

>  <Synonyms>


>  <Type>
NON-POLYMER

>  <Formula>
C6 H8 Cl N3 O4 S2

>  <MolecularWeight>
285.728

>  <ModifiedDate>
2011-06-04

>  <Parent>


>  <OneLetterCode>


>  <SubcomponentList>


>  <AmbiguousFlag>


>  <InChI>
InChI=1S/C6H8ClN3O4S2/c7-3-1-4(8)6(16(10,13)14)2-5(3)15(9,11)12/h1-2H,8H2,(H2,9,11,12)(H2,10,13,14)

>  <InChIKey>
IHJCXVZDYSXXFT-UHFFFAOYSA-N

>  <SMILES>
c1c(c(cc(c1Cl)S(=O)(=O)N)S(=O)(=O)N)N

$$$$
