2XYT_TC9_B_1206
  RCSB PDB08012018193D
Coordinates from PDB:2XYT:B:1206 Model:1 without hydrogens
 45 51  0  0  0  0            999 V2000
   37.1400  117.7530   52.1260   N 0  3  0  0  0  0  0  0  0  0  0  0
   36.8440  118.3230   50.8540   C 0  0  0  0  0  0  0  0  0  0  0  0
   37.9710  118.1530   49.8780   C 0  0  0  0  0  0  0  0  0  0  0  0
   38.8200  116.9350   50.1080   C 0  0  0  0  0  0  0  0  0  0  0  0
   38.5420  116.0150   51.1590   C 0  0  0  0  0  0  0  0  0  0  0  0
   37.3610  116.2610   52.0100   C 0  0  0  0  0  0  0  0  0  0  0  0
   39.9180  116.6730   49.2490   C 0  0  0  0  0  0  0  0  0  0  0  0
   40.7210  115.5200   49.4640   C 0  0  0  0  0  0  0  0  0  0  0  0
   40.4180  114.6170   50.5280   C 0  0  0  0  0  0  0  0  0  0  0  0
   39.3190  114.8520   51.3870   C 0  0  0  0  0  0  0  0  0  0  0  0
   41.2160  113.4540   50.6380   O 0  0  0  0  0  0  0  0  0  0  0  0
   41.1230  112.7220   51.8480   C 0  0  0  0  0  0  0  0  0  0  0  0
   42.2150  112.8570   52.7160   C 0  0  0  0  0  0  0  0  0  0  0  0
   42.2790  112.1030   53.8660   C 0  0  0  0  0  0  0  0  0  0  0  0
   41.2460  111.1790   54.1500   C 0  0  0  0  0  0  0  0  0  0  0  0
   40.1700  111.0120   53.2770   C 0  0  0  0  0  0  0  0  0  0  0  0
   40.0990  111.7890   52.1170   C 0  0  0  0  0  0  0  0  0  0  0  0
   39.0430  110.0090   53.6880   C 0  0  0  0  0  0  0  0  0  0  0  0
   38.8970  108.6740   52.8710   C 0  0  0  0  0  0  0  0  0  0  0  0
   39.6970  107.5350   53.3030   N 0  3  0  0  0  0  0  0  0  0  0  0
   39.1200  106.4860   54.1120   C 0  0  0  0  0  0  0  0  0  0  0  0
   37.8260  106.7800   54.7930   C 0  0  0  0  0  0  0  0  0  0  0  0
   36.8790  107.4720   53.8900   C 0  0  0  0  0  0  0  0  0  0  0  0
   37.3660  108.3910   52.9160   C 0  0  0  0  0  0  0  0  0  0  0  0
   35.5020  107.2100   54.0320   C 0  0  0  0  0  0  0  0  0  0  0  0
   34.6140  107.8630   53.2070   C 0  0  0  0  0  0  0  0  0  0  0  0
   35.0870  108.7990   52.2200   C 0  0  0  0  0  0  0  0  0  0  0  0
   36.4760  109.0740   52.0890   C 0  0  0  0  0  0  0  0  0  0  0  0
   36.9550  109.9360   51.0690   O 0  0  0  0  0  0  0  0  0  0  0  0
   36.7370  111.3110   51.2260   C 0  0  0  0  0  0  0  0  0  0  0  0
   36.8750  112.1320   50.0800   C 0  0  0  0  0  0  0  0  0  0  0  0
   36.6670  113.5090   50.1600   C 0  0  0  0  0  0  0  0  0  0  0  0
   36.3320  114.0900   51.3630   C 0  0  0  0  0  0  0  0  0  0  0  0
   36.2000  113.2720   52.5300   C 0  0  0  0  0  0  0  0  0  0  0  0
   36.3970  111.8960   52.4590   C 0  0  0  0  0  0  0  0  0  0  0  0
   36.1050  115.5870   51.4220   C 0  0  0  0  0  0  0  0  0  0  0  0
   41.8020  115.2530   48.5980   O 0  0  0  0  0  0  0  0  0  0  0  0
   42.5670  116.3090   48.0430   C 0  0  0  0  0  0  0  0  0  0  0  0
   43.1970  113.7730   52.3910   O 0  0  0  0  0  0  0  0  0  0  0  0
   33.2670  107.6020   53.3540   O 0  0  0  0  0  0  0  0  0  0  0  0
   32.8740  106.3610   53.7670   C 0  0  0  0  0  0  0  0  0  0  0  0
   34.1830  109.4830   51.4410   O 0  0  0  0  0  0  0  0  0  0  0  0
   36.4320  118.5700   53.1010   C 0  0  0  0  0  0  0  0  0  0  0  0
   40.9110  108.0110   53.9990   C 0  0  0  0  0  0  0  0  0  0  0  0
   40.1210  106.8000   52.0970   C 0  0  0  0  0  0  0  0  0  0  0  0
  1  2  1  0  0  0  0
  1  6  1  0  0  0  0
  1 43  1  0  0  0  0
  2  3  1  0  0  0  0
  3  4  1  0  0  0  0
  4  5  1  0  0  0  0
  4  7  2  0  0  0  0
  5  6  1  0  0  0  0
  5 10  2  0  0  0  0
  6 36  1  0  0  0  0
  7  8  1  0  0  0  0
  8  9  2  0  0  0  0
  8 37  1  0  0  0  0
  9 10  1  0  0  0  0
  9 11  1  0  0  0  0
 11 12  1  0  0  0  0
 12 13  1  0  0  0  0
 12 17  2  0  0  0  0
 13 14  2  0  0  0  0
 13 39  1  0  0  0  0
 14 15  1  0  0  0  0
 15 16  2  0  0  0  0
 16 17  1  0  0  0  0
 16 18  1  0  0  0  0
 18 19  1  0  0  0  0
 19 20  1  0  0  0  0
 19 24  1  0  0  0  0
 20 21  1  0  0  0  0
 20 44  1  0  0  0  0
 20 45  1  0  0  0  0
 21 22  1  0  0  0  0
 22 23  1  0  0  0  0
 23 24  1  0  0  0  0
 23 25  2  0  0  0  0
 24 28  2  0  0  0  0
 25 26  1  0  0  0  0
 26 27  2  0  0  0  0
 26 40  1  0  0  0  0
 27 28  1  0  0  0  0
 27 42  1  0  0  0  0
 28 29  1  0  0  0  0
 29 30  1  0  0  0  0
 30 31  1  0  0  0  0
 30 35  2  0  0  0  0
 31 32  2  0  0  0  0
 32 33  1  0  0  0  0
 33 34  2  0  0  0  0
 33 36  1  0  0  0  0
 34 35  1  0  0  0  0
 37 38  1  0  0  0  0
 40 41  1  0  0  0  0
M  CHG  2   1   1  20   1
M  END
>  <InstanceId>
2XYT_TC9_B_1206

>  <ChemCompId>
TC9

>  <PdbId>
2XYT

>  <ChainId>
B

>  <ResidueNumber>
1206

>  <InsertionCode>


>  <Model>
1

>  <AltIds>


>  <MissingHeavyAtoms>
0

>  <ObservedFormula>
C37 N2 O6

>  <Name>
D-TUBOCURARINE

>  <SystematicName>


>  <Synonyms>


>  <Type>
NON-POLYMER

>  <Formula>
C37 H42 N2 O6

>  <MolecularWeight>
610.739

>  <ModifiedDate>
2011-06-04

>  <Parent>


>  <OneLetterCode>


>  <SubcomponentList>


>  <AmbiguousFlag>
N

>  <InChI>
InChI=1S/C37H40N2O6/c1-38-14-12-24-19-32(42-4)33-21-27(24)28(38)16-22-6-9-26(10-7-22)44-37-35-25(20-34(43-5)36(37)41)13-15-39(2,3)29(35)17-23-8-11-30(40)31(18-23)45-33/h6-11,18-21,28-29H,12-17H2,1-5H3,(H-,40,41)/p+2/t28-,29+/m0/s1

>  <InChIKey>
JFJZZMVDLULRGK-URLMMPGGSA-P

>  <SMILES>
C[N@H+]1CCc2cc(c3cc2[C@@H]1Cc4ccc(cc4)Oc5c6c(cc(c5O)OC)CC[N+]([C@@H]6Cc7ccc(c(c7)O3)O)(C)C)OC

$$$$
