1K1N_CCR_A_999
  RCSB PDB08012015163D
Coordinates from PDB:1K1N:A:999 Model:1 without hydrogens
 42 44  0  0  0  0            999 V2000
   -0.5480   21.9710   14.9630   S 0  0  0  0  0  0  0  0  0  0  0  0
   -1.7860   22.5480   15.4320   O 0  0  0  0  0  0  0  0  0  0  0  0
   -0.4330   21.9640   13.5300   O 0  0  0  0  0  0  0  0  0  0  0  0
    0.9230   22.5860   15.6520   C 0  0  0  0  0  0  0  0  0  0  0  0
    0.8790   23.6800   16.5800   C 0  0  0  0  0  0  0  0  0  0  0  0
    2.0660   24.1870   17.1710   C 0  0  0  0  0  0  0  0  0  0  0  0
    3.3110   23.6100   16.8580   C 0  0  0  0  0  0  0  0  0  0  0  0
    3.3440   22.5220   15.9590   C 0  0  0  0  0  0  0  0  0  0  0  0
    2.1830   22.0070   15.3510   C 0  0  0  0  0  0  0  0  0  0  0  0
   -0.4370   24.3850   16.9880   C 0  0  0  0  0  0  0  0  0  0  0  0
    2.0720   25.3710   18.1710   C 0  0  0  0  0  0  0  0  0  0  0  0
    2.5000   20.8290   14.3960   C 0  0  0  0  0  0  0  0  0  0  0  0
    4.4940   24.1220   17.4630   O 0  0  0  0  0  0  0  0  0  0  0  0
    5.7750   23.4850   17.2280   C 0  0  0  0  0  0  0  0  0  0  0  0
   -0.6380   20.4090   15.4420   N 0  0  0  0  0  0  0  0  0  0  0  0
   -1.0760   20.0720   16.7690   C 0  0  0  0  0  0  0  0  0  0  0  0
   -0.2230   19.0280   17.4520   C 0  0  0  0  0  0  0  0  0  0  0  0
    0.6400   18.4310   16.8340   O 0  0  0  0  0  0  0  0  0  0  0  0
   -2.5130   19.5450   16.6440   C 0  0  0  0  0  0  0  0  0  0  0  0
   -3.3320   19.8250   17.8750   C 0  0  0  0  0  0  0  0  0  0  0  0
   -4.5130   19.4630   17.8290   O 0  0  0  0  0  0  0  0  0  0  0  0
   -2.8240   20.4280   18.8600   O 0  0  0  0  0  0  0  0  0  0  0  0
   -0.5090   18.8490   18.7710   N 0  0  0  0  0  0  0  0  0  0  0  0
    0.1430   17.8700   19.6190   C 0  0  0  0  0  0  0  0  0  0  0  0
    0.5480   18.6580   20.8480   C 0  0  0  0  0  0  0  0  0  0  0  0
   -0.2610   18.7330   21.7610   O 0  0  0  0  0  0  0  0  0  0  0  0
   -0.8830   16.7710   20.0210   C 0  0  0  0  0  0  0  0  0  0  0  0
   -1.1610   15.9210   18.7940   C 0  0  0  0  0  0  0  0  0  0  0  0
   -2.2510   16.2390   17.9570   C 0  0  0  0  0  0  0  0  0  0  0  0
   -0.3600   14.8220   18.4810   C 0  0  0  0  0  0  0  0  0  0  0  0
   -2.4960   15.4860   16.8130   C 0  0  0  0  0  0  0  0  0  0  0  0
   -0.6290   14.0620   17.3350   C 0  0  0  0  0  0  0  0  0  0  0  0
   -1.7020   14.3660   16.4650   C 0  0  0  0  0  0  0  0  0  0  0  0
   -1.9850   13.5460   15.2290   C 0  0  0  0  0  0  0  0  0  0  0  0
   -1.6020   12.2830   15.1330   N 0  0  0  0  0  0  0  0  0  0  0  0
   -2.6060   14.0610   14.1910   N 0  0  0  0  0  0  0  0  0  0  0  0
    1.7630   19.2570   20.9060   N 0  0  0  0  0  0  0  0  0  0  0  0
    2.1020   20.0820   22.0650   C 0  0  0  0  0  0  0  0  0  0  0  0
    2.1600   21.5440   21.6280   C 0  0  0  0  0  0  0  0  0  0  0  0
    3.1630   21.6850   20.4460   C 0  0  0  0  0  0  0  0  0  0  0  0
    2.6840   20.8010   19.2710   C 0  0  0  0  0  0  0  0  0  0  0  0
    2.6240   19.3280   19.7190   C 0  0  0  0  0  0  0  0  0  0  0  0
 28 29  2  0  0  0  0
 28 30  1  0  0  0  0
 28 27  1  0  0  0  0
 29 31  1  0  0  0  0
 31 33  2  0  0  0  0
 32 30  2  0  0  0  0
 32 33  1  0  0  0  0
 33 34  1  0  0  0  0
 34 36  1  0  0  0  0
 34 35  2  0  0  0  0
 27 24  1  0  0  0  0
 24 23  1  0  0  0  0
 24 25  1  0  0  0  0
 23 17  1  0  0  0  0
 25 26  2  0  0  0  0
 25 37  1  0  0  0  0
 37 38  1  0  0  0  0
 37 42  1  0  0  0  0
 38 39  1  0  0  0  0
 39 40  1  0  0  0  0
 40 41  1  0  0  0  0
 41 42  1  0  0  0  0
 15  1  1  0  0  0  0
 15 16  1  0  0  0  0
  1  2  2  0  0  0  0
  1  3  2  0  0  0  0
  1  4  1  0  0  0  0
  4  5  2  0  0  0  0
  4  9  1  0  0  0  0
  5  6  1  0  0  0  0
  5 10  1  0  0  0  0
  6  7  2  0  0  0  0
  6 11  1  0  0  0  0
  7  8  1  0  0  0  0
  7 13  1  0  0  0  0
  8  9  2  0  0  0  0
  9 12  1  0  0  0  0
 13 14  1  0  0  0  0
 16 19  1  0  0  0  0
 16 17  1  0  0  0  0
 19 20  1  0  0  0  0
 20 21  2  0  0  0  0
 20 22  1  0  0  0  0
 17 18  2  0  0  0  0
M  END
>  <InstanceId>
1K1N_CCR_A_999

>  <ChemCompId>
CCR

>  <PdbId>
1K1N

>  <ChainId>
A

>  <ResidueNumber>
999

>  <InsertionCode>


>  <Model>
1

>  <AltIds>


>  <MissingHeavyAtoms>
0

>  <ObservedFormula>
C29 N5 O7 S

>  <Name>
[N-[N-(4-METHOXY-2,3,6-TRIMETHYLPHENYLSULFONYL)-L-ASPARTYL]-D-(4-AMIDINO-PHENYLALANYL)]-PIPERIDINE

>  <SystematicName>
(3S)-4-[[(2R)-3-(4-carbamimidoylphenyl)-1-oxo-1-piperidin-1-yl-propan-2-yl]amino]-3-[(4-methoxy-2,3,6-trimethyl-phenyl)sulfonylamino]-4-oxo-butanoic acid

>  <Synonyms>
CRC200 (CHIRON-BEHRING)

>  <Type>
peptide-like

>  <Formula>
C29 H39 N5 O7 S

>  <MolecularWeight>
601.714

>  <ModifiedDate>
2020-06-17

>  <Parent>


>  <OneLetterCode>


>  <SubcomponentList>
02B ASP APH PIP

>  <AmbiguousFlag>
N

>  <InChI>
InChI=1S/C29H39N5O7S/c1-17-14-24(41-4)18(2)19(3)26(17)42(39,40)33-22(16-25(35)36)28(37)32-23(29(38)34-12-6-5-7-13-34)15-20-8-10-21(11-9-20)27(30)31/h8-11,14,22-23,33H,5-7,12-13,15-16H2,1-4H3,(H3,30,31)(H,32,37)(H,35,36)/t22-,23+/m0/s1

>  <InChIKey>
ZOXOKTJHZSUHRJ-XZOQPEGZSA-N

>  <SMILES>
Cc1cc(c(c(c1S(=O)(=O)N[C@@H](CC(=O)O)C(=O)N[C@H](Cc2ccc(cc2)C(=N)N)C(=O)N3CCCCC3)C)C)OC

$$$$
