1W5Y_BE6_A_1100
  RCSB PDB08012016163D
Coordinates from PDB:1W5Y:A:1100 Model:1 without hydrogens
 52 57  0  0  0  0            999 V2000
   16.7470   22.4150    8.8490   C 0  0  0  0  0  0  0  0  0  0  0  0
   18.1370   22.5070    8.4070   C 0  0  0  0  0  0  0  0  0  0  0  0
   19.0930   21.4520    8.6270   C 0  0  0  0  0  0  0  0  0  0  0  0
   18.6990   20.2310    9.3160   C 0  0  0  0  0  0  0  0  0  0  0  0
   17.3120   20.0960    9.7750   C 0  0  0  0  0  0  0  0  0  0  0  0
   16.3600   21.1650    9.5440   C 0  0  0  0  0  0  0  0  0  0  0  0
   10.0890   24.1140    2.2380   C 0  0  0  0  0  0  0  0  0  0  0  0
    8.9640   23.2690    2.6390   C 0  0  0  0  0  0  0  0  0  0  0  0
    7.5900   23.8330    2.6510   C 0  0  0  0  0  0  0  0  0  0  0  0
    7.3770   25.2480    2.2560   C 0  0  0  0  0  0  0  0  0  0  0  0
    8.5440   26.0650    1.8590   C 0  0  0  0  0  0  0  0  0  0  0  0
    9.8530   25.4940    1.8580   C 0  0  0  0  0  0  0  0  0  0  0  0
   11.5260   23.6260    2.2100   C 0  0  0  0  0  0  0  0  0  0  0  0
   12.0850   23.2880    3.5080   O 0  0  0  0  0  0  0  0  0  0  0  0
   12.1100   24.3590    4.5860   C 0  0  0  0  0  0  0  0  0  0  0  0
   13.1530   24.0940    5.6590   C 0  0  0  0  0  0  0  0  0  0  0  0
   14.4610   23.7650    5.0460   C 0  0  0  0  0  0  0  0  0  0  0  0
   15.3490   23.0370    6.1270   C 0  0  0  0  0  0  0  0  0  0  0  0
   15.4050   21.5370    5.9420   C 0  0  0  0  0  0  0  0  0  0  0  0
   14.3900   20.8530    6.1490   O 0  0  0  0  0  0  0  0  0  0  0  0
   16.5810   20.9340    5.5800   N 0  0  0  0  0  0  0  0  0  0  0  0
   14.8490   23.3370    7.4870   O 0  0  0  0  0  0  0  0  0  0  0  0
   15.8270   23.6130    8.5330   C 0  0  0  0  0  0  0  0  0  0  0  0
   15.0610   25.0140    4.6130   O 0  0  0  0  0  0  0  0  0  0  0  0
   13.3700   25.2610    6.5330   O 0  0  0  0  0  0  0  0  0  0  0  0
   10.8810   24.4500    5.4300   C 0  0  0  0  0  0  0  0  0  0  0  0
   10.4930   23.4220    6.0300   O 0  0  0  0  0  0  0  0  0  0  0  0
   10.2390   25.6640    5.5050   N 0  0  0  0  0  0  0  0  0  0  0  0
    9.0380   25.9040    6.2810   C 0  0  0  0  0  0  0  0  0  0  0  0
    9.3830   26.6970    7.5010   C 0  0  0  0  0  0  0  0  0  0  0  0
    8.3090   27.6230    7.8140   C 0  0  0  0  0  0  0  0  0  0  0  0
   10.5370   26.5730    8.3840   C 0  0  0  0  0  0  0  0  0  0  0  0
   10.5970   27.4050    9.6050   C 0  0  0  0  0  0  0  0  0  0  0  0
    9.5050   28.3250    9.8980   C 0  0  0  0  0  0  0  0  0  0  0  0
    7.9280   26.8150    5.6690   C 0  0  0  0  0  0  0  0  0  0  0  0
    8.5800   27.8700    4.9350   O 0  0  0  0  0  0  0  0  0  0  0  0
    8.3510   28.4480    9.0140   C 0  0  0  0  0  0  0  0  0  0  0  0
    7.1650   27.3230    6.9250   C 0  0  0  0  0  0  0  0  0  0  0  0
   16.7060   19.5050    5.4160   C 0  0  0  0  0  0  0  0  0  0  0  0
   16.5860   19.0370    3.9580   C 0  0  0  0  0  0  0  0  0  0  0  0
   17.5240   17.9720    3.7160   C 0  0  0  0  0  0  0  0  0  0  0  0
   15.7810   19.5570    2.8640   C 0  0  0  0  0  0  0  0  0  0  0  0
   15.9450   18.9790    1.5090   C 0  0  0  0  0  0  0  0  0  0  0  0
   16.9030   17.9050    1.3040   C 0  0  0  0  0  0  0  0  0  0  0  0
   18.1020   18.9560    5.7940   C 0  0  0  0  0  0  0  0  0  0  0  0
   19.0760   19.9400    5.3730   O 0  0  0  0  0  0  0  0  0  0  0  0
   17.7050   17.3800    2.3910   C 0  0  0  0  0  0  0  0  0  0  0  0
   18.1830   17.6340    5.0200   C 0  0  0  0  0  0  0  0  0  0  0  0
    8.4740   27.3950    1.4730   F 0  0  0  0  0  0  0  0  0  0  0  0
   20.2910   21.5760    8.2200   F 0  0  0  0  0  0  0  0  0  0  0  0
   14.9050   21.0540   10.0000   F 0  0  0  0  0  0  0  0  0  0  0  0
    9.1550   22.1270    2.9620   F 0  0  0  0  0  0  0  0  0  0  0  0
  1  2  2  0  0  0  0
  1  6  1  0  0  0  0
  1 23  1  0  0  0  0
  2  3  1  0  0  0  0
  3  4  2  0  0  0  0
  3 50  1  0  0  0  0
  4  5  1  0  0  0  0
  5  6  2  0  0  0  0
  6 51  1  0  0  0  0
  7  8  2  0  0  0  0
  7 12  1  0  0  0  0
  7 13  1  0  0  0  0
  8  9  1  0  0  0  0
  8 52  1  0  0  0  0
  9 10  2  0  0  0  0
 10 11  1  0  0  0  0
 11 12  2  0  0  0  0
 11 49  1  0  0  0  0
 13 14  1  0  0  0  0
 14 15  1  0  0  0  0
 15 16  1  0  0  0  0
 15 26  1  0  0  0  0
 16 17  1  0  0  0  0
 16 25  1  0  0  0  0
 17 18  1  0  0  0  0
 17 24  1  0  0  0  0
 18 19  1  0  0  0  0
 18 22  1  0  0  0  0
 19 20  2  0  0  0  0
 19 21  1  0  0  0  0
 21 39  1  0  0  0  0
 22 23  1  0  0  0  0
 26 27  2  0  0  0  0
 26 28  1  0  0  0  0
 28 29  1  0  0  0  0
 29 30  1  0  0  0  0
 29 35  1  0  0  0  0
 30 31  2  0  0  0  0
 30 32  1  0  0  0  0
 31 37  1  0  0  0  0
 31 38  1  0  0  0  0
 32 33  2  0  0  0  0
 33 34  1  0  0  0  0
 34 37  2  0  0  0  0
 35 36  1  0  0  0  0
 35 38  1  0  0  0  0
 39 40  1  0  0  0  0
 39 45  1  0  0  0  0
 40 41  2  0  0  0  0
 40 42  1  0  0  0  0
 41 47  1  0  0  0  0
 41 48  1  0  0  0  0
 42 43  2  0  0  0  0
 43 44  1  0  0  0  0
 44 47  2  0  0  0  0
 45 46  1  0  0  0  0
 45 48  1  0  0  0  0
M  END
>  <InstanceId>
1W5Y_BE6_A_1100

>  <ChemCompId>
BE6

>  <PdbId>
1W5Y

>  <ChainId>
A

>  <ResidueNumber>
1100

>  <InsertionCode>


>  <Model>
1

>  <AltIds>


>  <MissingHeavyAtoms>
0

>  <ObservedFormula>
C38 N2 O8 F4

>  <Name>
(2R,3R,4R,5R)-2,5-BIS[(2,5-DIFLUOROBENZYL)OXY]-3,4-DIHYDROXY-N,N'-BIS[(1S,2R)-2-HYDROXY-2,3-DIHYDRO-1H-INDEN-1-YL]HEXANEDIAMIDE

>  <SystematicName>
(2R,3R,4R,5R)-2,5-bis[(2,5-difluorophenyl)methoxy]-3,4-dihydroxy-N,N'-bis[(1S,2R)-2-hydroxy-2,3-dihydro-1H-inden-1-yl]hexanediamide

>  <Synonyms>
HIV-1 INHIBITOR

>  <Type>
NON-POLYMER

>  <Formula>
C38 H36 F4 N2 O8

>  <MolecularWeight>
724.695

>  <ModifiedDate>
2011-06-04

>  <Parent>


>  <OneLetterCode>


>  <SubcomponentList>


>  <AmbiguousFlag>
N

>  <InChI>
InChI=1S/C38H36F4N2O8/c39-23-9-11-27(41)21(13-23)17-51-35(37(49)43-31-25-7-3-1-5-19(25)15-29(31)45)33(47)34(48)36(52-18-22-14-24(40)10-12-28(22)42)38(50)44-32-26-8-4-2-6-20(26)16-30(32)46/h1-14,29-36,45-48H,15-18H2,(H,43,49)(H,44,50)/t29-,30-,31+,32+,33-,34-,35-,36-/m1/s1

>  <InChIKey>
MHRYDJWKKUNWJY-JQFCFGFHSA-N

>  <SMILES>
c1ccc2c(c1)C[C@H]([C@H]2NC(=O)[C@@H]([C@@H]([C@H]([C@H](C(=O)N[C@H]3c4ccccc4C[C@H]3O)OCc5cc(ccc5F)F)O)O)OCc6cc(ccc6F)F)O

$$$$
