1P1O_QUS_A_301
  RCSB PDB08012015413D
Coordinates from PDB:1P1O:A:301 Model:1 without hydrogens
 13 13  0  0  0  0            999 V2000
   14.8140    1.2690   18.5500   C 0  0  0  0  0  0  0  0  0  0  0  0
   14.6700    1.5780   17.0550   C 0  0  0  0  0  0  0  0  0  0  0  0
   16.0570    2.0870   16.6370   C 0  0  0  0  0  0  0  0  0  0  0  0
   16.5890    0.3950   14.8250   C 0  0  0  0  0  0  0  0  0  0  0  0
   15.8780    1.6490   13.0980   C 0  0  0  0  0  0  0  0  0  0  0  0
   13.5190    2.5360   16.9410   N 0  0  0  0  0  0  0  0  0  0  0  0
   16.3790    1.6670   15.2710   N 0  0  0  0  0  0  0  0  0  0  0  0
   16.2850    0.4170   13.5050   N 0  0  0  0  0  0  0  0  0  0  0  0
   13.9960    1.7570   19.3480   O 0  0  0  0  0  0  0  0  0  0  0  0
   15.7640    0.5270   18.8920   O 0  0  0  0  0  0  0  0  0  0  0  0
   16.9670   -0.5020   15.5150   O 0  0  0  0  0  0  0  0  0  0  0  0
   15.5250    2.0420   12.0010   O 0  0  0  0  0  0  0  0  0  0  0  0
   15.9150    2.4860   14.1900   O 0  0  0  0  0  0  0  0  0  0  0  0
  1  2  1  0  0  0  0
  1  9  2  0  0  0  0
  1 10  1  0  0  0  0
  2  3  1  0  0  0  0
  2  6  1  0  0  0  0
  3  7  1  0  0  0  0
  4  7  1  0  0  0  0
  4  8  1  0  0  0  0
  4 11  2  0  0  0  0
  5  8  1  0  0  0  0
  5 12  2  0  0  0  0
  5 13  1  0  0  0  0
  7 13  1  0  0  0  0
M  END
>  <InstanceId>
1P1O_QUS_A_301

>  <ChemCompId>
QUS

>  <PdbId>
1P1O

>  <ChainId>
A

>  <ResidueNumber>
301

>  <InsertionCode>


>  <Model>
1

>  <AltIds>


>  <MissingHeavyAtoms>
0

>  <ObservedFormula>
C5 N3 O5

>  <Name>
(S)-2-AMINO-3-(3,5-DIOXO-[1,2,4]OXADIAZOLIDIN-2-YL)-PROPIONIC ACID

>  <SystematicName>
(2S)-2-amino-3-(3,5-dioxo-1,2,4-oxadiazolidin-2-yl)propanoic acid

>  <Synonyms>
QUISQUALATE

>  <Type>
NON-POLYMER

>  <Formula>
C5 H7 N3 O5

>  <MolecularWeight>
189.126

>  <ModifiedDate>
2020-06-17

>  <Parent>


>  <OneLetterCode>


>  <SubcomponentList>


>  <AmbiguousFlag>
N

>  <InChI>
InChI=1S/C5H7N3O5/c6-2(3(9)10)1-8-4(11)7-5(12)13-8/h2H,1,6H2,(H,9,10)(H,7,11,12)/t2-/m0/s1

>  <InChIKey>
ASNFTDCKZKHJSW-REOHCLBHSA-N

>  <SMILES>
C([C@@H](C(=O)O)N)N1C(=O)NC(=O)O1

$$$$
