5I9Y_1N1_A_1001
  RCSB PDB08022001423D
Coordinates from PDB:5I9Y:A:1001 Model:1 without hydrogens
 33 36  0  0  0  0            999 V2000
  -70.6820  -13.9890   44.6090   C 0  0  0  0  0  0  0  0  0  0  0  0
  -70.2230  -14.4390   45.7920   C 0  0  0  0  0  0  0  0  0  0  0  0
  -70.9090  -15.0190   46.8150   C 0  0  0  0  0  0  0  0  0  0  0  0
  -60.3690  -11.1110   42.1280   N 0  0  0  0  0  0  0  0  0  0  0  0
  -74.3690  -17.2310   49.6650   C 0  0  0  0  0  0  0  0  0  0  0  0
  -74.2670  -15.8460   49.6210   C 0  0  0  0  0  0  0  0  0  0  0  0
  -73.5430  -15.2260   48.6040   C 0  0  0  0  0  0  0  0  0  0  0  0
  -73.4690  -13.8370   48.5980   C 0  0  0  0  0  0  0  0  0  0  0  0
  -66.1730  -12.9950   44.0890   C 0  0  0  0  0  0  0  0  0  0  0  0
  -65.0860  -12.6810   43.2680   C 0  0  0  0  0  0  0  0  0  0  0  0
  -63.8130  -12.6770   43.8380   C 0  0  0  0  0  0  0  0  0  0  0  0
  -64.7090  -13.2650   45.9010   C 0  0  0  0  0  0  0  0  0  0  0  0
  -64.5330  -13.5680   47.2500   C 0  0  0  0  0  0  0  0  0  0  0  0
  -62.7490  -11.7810   41.8040   C 0  0  0  0  0  0  0  0  0  0  0  0
  -61.3910  -12.6530   43.7720   C 0  0  0  0  0  0  0  0  0  0  0  0
  -59.4310   -9.9810   42.0090   C 0  0  0  0  0  0  0  0  0  0  0  0
  -58.0090  -10.3870   42.4130   C 0  0  0  0  0  0  0  0  0  0  0  0
  -67.4210  -13.0060   43.5870   N 0  0  0  0  0  0  0  0  0  0  0  0
  -68.4870  -13.4800   44.2720   C 0  0  0  0  0  0  0  0  0  0  0  0
  -69.7360  -13.4640   43.7830   N 0  0  0  0  0  0  0  0  0  0  0  0
  -68.5490  -14.1670   45.8270   S 0  0  0  0  0  0  0  0  0  0  0  0
  -72.2070  -15.3970   46.6180   N 0  0  0  0  0  0  0  0  0  0  0  0
  -72.9070  -16.0050   47.6270   C 0  0  0  0  0  0  0  0  0  0  0  0
  -73.0190  -17.4040   47.6660   C 0  0  0  0  0  0  0  0  0  0  0  0
  -73.7490  -18.0040   48.6900   C 0  0  0  0  0  0  0  0  0  0  0  0
  -72.2840  -18.4420   46.4860  Cl 0  0  0  0  0  0  0  0  0  0  0  0
  -70.3230  -15.2240   47.8760   O 0  0  0  0  0  0  0  0  0  0  0  0
  -63.6560  -12.9680   45.1350   N 0  0  0  0  0  0  0  0  0  0  0  0
  -65.9330  -13.2730   45.3750   N 0  0  0  0  0  0  0  0  0  0  0  0
  -62.7030  -12.3820   43.1480   N 0  0  0  0  0  0  0  0  0  0  0  0
  -61.7040  -10.6720   41.6830   C 0  0  0  0  0  0  0  0  0  0  0  0
  -60.4250  -11.5140   43.5400   C 0  0  0  0  0  0  0  0  0  0  0  0
  -57.7070   -9.8810   43.7190   O 0  0  0  0  0  0  0  0  0  0  0  0
  1  2  2  0  0  0  0
  1 20  1  0  0  0  0
  2  3  1  0  0  0  0
  2 21  1  0  0  0  0
  3 22  1  0  0  0  0
  3 27  2  0  0  0  0
  4 16  1  0  0  0  0
  4 31  1  0  0  0  0
  4 32  1  0  0  0  0
  5  6  2  0  0  0  0
  5 25  1  0  0  0  0
  6  7  1  0  0  0  0
  7  8  1  0  0  0  0
  7 23  2  0  0  0  0
  9 10  1  0  0  0  0
  9 18  1  0  0  0  0
  9 29  2  0  0  0  0
 10 11  2  0  0  0  0
 11 28  1  0  0  0  0
 11 30  1  0  0  0  0
 12 13  1  0  0  0  0
 12 28  2  0  0  0  0
 12 29  1  0  0  0  0
 14 30  1  0  0  0  0
 14 31  1  0  0  0  0
 15 30  1  0  0  0  0
 15 32  1  0  0  0  0
 16 17  1  0  0  0  0
 17 33  1  0  0  0  0
 18 19  1  0  0  0  0
 19 20  2  0  0  0  0
 19 21  1  0  0  0  0
 22 23  1  0  0  0  0
 23 24  1  0  0  0  0
 24 25  2  0  0  0  0
 24 26  1  0  0  0  0
M  END
>  <InstanceId>
5I9Y_1N1_A_1001

>  <ChemCompId>
1N1

>  <PdbId>
5I9Y

>  <ChainId>
A

>  <ResidueNumber>
1001

>  <InsertionCode>


>  <Model>
1

>  <AltIds>


>  <MissingHeavyAtoms>
0

>  <ObservedFormula>
C22 N7 O2 S Cl

>  <Name>
N-(2-CHLORO-6-METHYLPHENYL)-2-({6-[4-(2-HYDROXYETHYL)PIPERAZIN-1-YL]-2-METHYLPYRIMIDIN-4-YL}AMINO)-1,3-THIAZOLE-5-CARBOXAMIDE

>  <SystematicName>
N-(2-chloranyl-6-methyl-phenyl)-2-[[6-[4-(2-hydroxyethyl)piperazin-1-yl]-2-methyl-pyrimidin-4-yl]amino]-1,3-thiazole-5-carboxamide

>  <Synonyms>
Dasatinib

>  <Type>
NON-POLYMER

>  <Formula>
C22 H26 Cl N7 O2 S

>  <MolecularWeight>
488.006

>  <ModifiedDate>
2011-07-22

>  <Parent>


>  <OneLetterCode>


>  <SubcomponentList>


>  <AmbiguousFlag>
N

>  <InChI>
InChI=1S/C22H26ClN7O2S/c1-14-4-3-5-16(23)20(14)28-21(32)17-13-24-22(33-17)27-18-12-19(26-15(2)25-18)30-8-6-29(7-9-30)10-11-31/h3-5,12-13,31H,6-11H2,1-2H3,(H,28,32)(H,24,25,26,27)

>  <InChIKey>
ZBNZXTGUTAYRHI-UHFFFAOYSA-N

>  <SMILES>
Cc1cccc(c1NC(=O)c2cnc(s2)Nc3cc(nc(n3)C)N4CCN(CC4)CCO)Cl

$$$$
