5DYO_FLU_A_301
  RCSB PDB08022001093D
Coordinates from PDB:5DYO:A:301 Model:1 without hydrogens
 25 28  0  0  0  0            999 V2000
   27.5940   35.1590   28.6740   C 0  0  0  0  0  0  0  0  0  0  0  0
   28.3380   36.1440   29.2550   O 0  0  0  0  0  0  0  0  0  0  0  0
   27.3660   34.0040   29.4070   C 0  0  0  0  0  0  0  0  0  0  0  0
   26.6990   32.9560   28.8060   C 0  0  0  0  0  0  0  0  0  0  0  0
   26.4990   31.8390   29.5960   O 0  0  0  0  0  0  0  0  0  0  0  0
   25.8450   30.7370   29.1050   C 0  0  0  0  0  0  0  0  0  0  0  0
   25.6870   29.6890   29.9570   C 0  0  0  0  0  0  0  0  0  0  0  0
   24.9750   28.4970   29.5360   C 0  0  0  0  0  0  0  0  0  0  0  0
   24.7760   27.5580   30.3110   O 0  0  0  0  0  0  0  0  0  0  0  0
   24.4650   28.4800   28.1630   C 0  0  0  0  0  0  0  0  0  0  0  0
   24.6620   29.5280   27.3300   C 0  0  0  0  0  0  0  0  0  0  0  0
   25.3580   30.7140   27.7450   C 0  0  0  0  0  0  0  0  0  0  0  0
   25.5700   31.8210   26.9150   C 0  0  0  0  0  0  0  0  0  0  0  0
   26.2490   33.0160   27.4780   C 0  0  0  0  0  0  0  0  0  0  0  0
   26.4540   34.2100   26.7840   C 0  0  0  0  0  0  0  0  0  0  0  0
   27.1170   35.2750   27.3760   C 0  0  0  0  0  0  0  0  0  0  0  0
   25.2040   31.7730   25.4540   C 0  0  0  0  0  0  0  0  0  0  0  0
   24.0510   32.4520   25.0500   C 0  0  0  0  0  0  0  0  0  0  0  0
   23.5120   32.2170   23.7900   C 0  0  0  0  0  0  0  0  0  0  0  0
   24.1300   31.3390   22.9120   C 0  0  0  0  0  0  0  0  0  0  0  0
   25.3100   30.7030   23.2720   C 0  0  0  0  0  0  0  0  0  0  0  0
   25.8630   30.9210   24.5380   C 0  0  0  0  0  0  0  0  0  0  0  0
   27.1400   30.2460   24.9000   C 0  0  0  0  0  0  0  0  0  0  0  0
   28.1760   30.8810   25.0750   O 0  0  0  0  0  0  0  0  0  0  0  0
   27.0450   28.9560   25.0890   O 0  0  0  0  0  0  0  0  0  0  0  0
  1  2  1  0  0  0  0
  1  3  2  0  0  0  0
  1 16  1  0  0  0  0
  3  4  1  0  0  0  0
  4  5  1  0  0  0  0
  4 14  2  0  0  0  0
  5  6  1  0  0  0  0
  6  7  2  0  0  0  0
  6 12  1  0  0  0  0
  7  8  1  0  0  0  0
  8  9  2  0  0  0  0
  8 10  1  0  0  0  0
 10 11  2  0  0  0  0
 11 12  1  0  0  0  0
 12 13  2  0  0  0  0
 13 14  1  0  0  0  0
 13 17  1  0  0  0  0
 14 15  1  0  0  0  0
 15 16  2  0  0  0  0
 17 18  2  0  0  0  0
 17 22  1  0  0  0  0
 18 19  1  0  0  0  0
 19 20  2  0  0  0  0
 20 21  1  0  0  0  0
 21 22  2  0  0  0  0
 22 23  1  0  0  0  0
 23 24  2  0  0  0  0
 23 25  1  0  0  0  0
M  END
>  <InstanceId>
5DYO_FLU_A_301

>  <ChemCompId>
FLU

>  <PdbId>
5DYO

>  <ChainId>
A

>  <ResidueNumber>
301

>  <InsertionCode>


>  <Model>
1

>  <AltIds>


>  <MissingHeavyAtoms>
0

>  <ObservedFormula>
C20 O5

>  <Name>
2-(6-HYDROXY-3-OXO-3H-XANTHEN-9-YL)-BENZOIC ACID

>  <SystematicName>
2-(3-hydroxy-6-oxo-xanthen-9-yl)benzoic acid

>  <Synonyms>
FLUORESCEIN

>  <Type>
NON-POLYMER

>  <Formula>
C20 H12 O5

>  <MolecularWeight>
332.306

>  <ModifiedDate>
2020-06-17

>  <Parent>


>  <OneLetterCode>


>  <SubcomponentList>


>  <AmbiguousFlag>
N

>  <InChI>
InChI=1S/C20H12O5/c21-11-5-7-15-17(9-11)25-18-10-12(22)6-8-16(18)19(15)13-3-1-2-4-14(13)20(23)24/h1-10,21H,(H,23,24)

>  <InChIKey>
YKGGGCXBWXHKIZ-UHFFFAOYSA-N

>  <SMILES>
c1ccc(c(c1)C2=C3C=CC(=O)C=C3Oc4c2ccc(c4)O)C(=O)O

$$$$
