5FND_IQ5_A_1225
  RCSB PDB08022001243D
Coordinates from PDB:5FND:A:1225 Model:1 without hydrogens
 15 16  0  0  0  0            999 V2000
   34.0820    7.6630   28.0380   C 0  0  0  0  0  0  0  0  0  0  0  0
   32.9150    8.1890   27.5910   C 0  0  0  0  0  0  0  0  0  0  0  0
   32.8980    8.8200   26.3450   C 0  0  0  0  0  0  0  0  0  0  0  0
   31.7660    9.3900   25.8670   C 0  0  0  0  0  0  0  0  0  0  0  0
   31.5270   10.2220   24.3280   S 0  0  0  0  0  0  0  0  0  0  0  0
   29.7530   10.4560   24.7710   C 0  0  0  0  0  0  0  0  0  0  0  0
   28.8280   11.0270   24.0400   N 0  0  0  0  0  0  0  0  0  0  0  0
   29.5160   10.0030   26.0140   N 0  0  0  0  0  0  0  0  0  0  0  0
   30.5910    9.3760   26.5990   C 0  0  0  0  0  0  0  0  0  0  0  0
   30.5830    8.7360   27.7880   C 0  0  0  0  0  0  0  0  0  0  0  0
   31.7200    8.1140   28.3200   C 0  0  0  0  0  0  0  0  0  0  0  0
   31.6910    7.6140   29.5850   N 0  0  0  0  0  0  0  0  0  0  0  0
   31.8820    6.3130   29.9880   C 0  0  0  0  0  0  0  0  0  0  0  0
   32.0770    5.3730   29.2400   O 0  0  0  0  0  0  0  0  0  0  0  0
   31.7590    6.0890   31.4960   C 0  0  0  0  0  0  0  0  0  0  0  0
  1  2  1  0  0  0  0
  2  3  1  0  0  0  0
  2 11  2  0  0  0  0
  3  4  2  0  0  0  0
  4  5  1  0  0  0  0
  4  9  1  0  0  0  0
  5  6  1  0  0  0  0
  6  7  1  0  0  0  0
  6  8  2  0  0  0  0
  8  9  1  0  0  0  0
  9 10  2  0  0  0  0
 10 11  1  0  0  0  0
 11 12  1  0  0  0  0
 12 13  1  0  0  0  0
 13 14  2  0  0  0  0
 13 15  1  0  0  0  0
M  END
>  <InstanceId>
5FND_IQ5_A_1225

>  <ChemCompId>
IQ5

>  <PdbId>
5FND

>  <ChainId>
A

>  <ResidueNumber>
1225

>  <InsertionCode>


>  <Model>
1

>  <AltIds>


>  <MissingHeavyAtoms>
0

>  <ObservedFormula>
C10 N3 O S

>  <Name>
N-(2-AZANYL-6-METHYL-1,3-BENZOTHIAZOL-5-YL)ETHANAMIDE

>  <SystematicName>
N-(2-azanyl-6-methyl-1,3-benzothiazol-5-yl)ethanamide

>  <Synonyms>


>  <Type>
non-polymer

>  <Formula>
C10 H11 N3 O S

>  <MolecularWeight>
221.279

>  <ModifiedDate>
2016-11-18

>  <Parent>


>  <OneLetterCode>


>  <SubcomponentList>


>  <AmbiguousFlag>
N

>  <InChI>
InChI=1S/C10H11N3OS/c1-5-3-9-8(13-10(11)15-9)4-7(5)12-6(2)14/h3-4H,1-2H3,(H2,11,13)(H,12,14)

>  <InChIKey>
DUWIACCTNKYBNV-UHFFFAOYSA-N

>  <SMILES>
Cc1cc2c(cc1NC(=O)C)nc(s2)N

$$$$
