2F7I_26C_A_326
  RCSB PDB08012016573D
Coordinates from PDB:2F7I:A:326 Model:1 without hydrogens
 17 18  0  0  0  0            999 V2000
   20.4220   85.0780    2.8760   O 0  0  0  0  0  0  0  0  0  0  0  0
   21.6240   85.0640    3.5660   C 0  0  0  0  0  0  0  0  0  0  0  0
   22.7080   85.0450    2.9480   O 0  0  0  0  0  0  0  0  0  0  0  0
   21.6130   85.0710    5.0640   C 0  0  0  0  0  0  0  0  0  0  0  0
   22.7060   85.6390    5.7720   C 0  0  0  0  0  0  0  0  0  0  0  0
   20.5200   84.5140    5.7690   C 0  0  0  0  0  0  0  0  0  0  0  0
   20.5170   84.5260    7.1510   C 0  0  0  0  0  0  0  0  0  0  0  0
   21.6100   85.0960    7.8780   C 0  0  0  0  0  0  0  0  0  0  0  0
   22.7070   85.6520    7.1530   C 0  0  0  0  0  0  0  0  0  0  0  0
   21.6100   85.1090    9.2680   C 0  0  0  0  0  0  0  0  0  0  0  0
   21.5470   83.8980   10.0270   C 0  0  0  0  0  0  0  0  0  0  0  0
   21.5570   82.6660    9.4440   F 0  0  0  0  0  0  0  0  0  0  0  0
   21.5450   83.9230   11.4080   C 0  0  0  0  0  0  0  0  0  0  0  0
   21.6040   85.1340   12.0710   C 0  0  0  0  0  0  0  0  0  0  0  0
   21.6640   86.3310   11.3620   C 0  0  0  0  0  0  0  0  0  0  0  0
   21.6670   86.3330    9.9810   C 0  0  0  0  0  0  0  0  0  0  0  0
   21.6610   87.5540    9.3510   F 0  0  0  0  0  0  0  0  0  0  0  0
  1  2  2  0  0  0  0
  2  3  1  0  0  0  0
  2  4  1  0  0  0  0
  4  5  2  0  0  0  0
  4  6  1  0  0  0  0
  5  9  1  0  0  0  0
  6  7  2  0  0  0  0
  7  8  1  0  0  0  0
  8  9  2  0  0  0  0
  8 10  1  0  0  0  0
 10 11  1  0  0  0  0
 10 16  2  0  0  0  0
 11 12  1  0  0  0  0
 11 13  2  0  0  0  0
 13 14  1  0  0  0  0
 14 15  2  0  0  0  0
 15 16  1  0  0  0  0
 16 17  1  0  0  0  0
M  END
>  <InstanceId>
2F7I_26C_A_326

>  <ChemCompId>
26C

>  <PdbId>
2F7I

>  <ChainId>
A

>  <ResidueNumber>
326

>  <InsertionCode>


>  <Model>
1

>  <AltIds>


>  <MissingHeavyAtoms>
0

>  <ObservedFormula>
C13 O2 F2

>  <Name>
2',6'-DIFLUOROBIPHENYL-4-CARBOXYLIC ACID

>  <SystematicName>
4-(2,6-difluorophenyl)benzoic acid

>  <Synonyms>


>  <Type>
NON-POLYMER

>  <Formula>
C13 H8 F2 O2

>  <MolecularWeight>
234.198

>  <ModifiedDate>
2011-06-04

>  <Parent>


>  <OneLetterCode>


>  <SubcomponentList>


>  <AmbiguousFlag>
N

>  <InChI>
InChI=1S/C13H8F2O2/c14-10-2-1-3-11(15)12(10)8-4-6-9(7-5-8)13(16)17/h1-7H,(H,16,17)

>  <InChIKey>
CWWIIKLXUPZDOG-UHFFFAOYSA-N

>  <SMILES>
c1cc(c(c(c1)F)c2ccc(cc2)C(=O)O)F

$$$$
