4UFM_DGJ_A_1001
  RCSB PDB08012023303D
Coordinates from PDB:4UFM:A:1001 Model:1 without hydrogens
 11 11  0  0  0  0            999 V2000
   76.8880   88.6370   18.1940   C 0  0  0  0  0  0  0  0  0  0  0  0
   76.3420   89.1330   19.5230   C 0  0  0  0  0  0  0  0  0  0  0  0
   75.4120   90.1940   19.3010   O 0  0  0  0  0  0  0  0  0  0  0  0
   77.4770   89.6060   20.4170   C 0  0  0  0  0  0  0  0  0  0  0  0
   77.0760   89.5820   21.7820   O 0  0  0  0  0  0  0  0  0  0  0  0
   78.7170   88.7490   20.2140   C 0  0  0  0  0  0  0  0  0  0  0  0
   78.4300   87.3890   20.5220   O 0  0  0  0  0  0  0  0  0  0  0  0
   79.2400   88.8820   18.7840   C 0  0  0  0  0  0  0  0  0  0  0  0
   78.1820   89.2180   17.8210   N 0  0  0  0  0  0  0  0  0  0  0  0
   80.0190   87.6670   18.3130   C 0  0  0  0  0  0  0  0  0  0  0  0
   80.6990   87.9630   17.1010   O 0  0  0  0  0  0  0  0  0  0  0  0
  9  1  1  0  0  0  0
  2  1  1  0  0  0  0
  4  2  1  0  0  0  0
  2  3  1  0  0  0  0
  6  4  1  0  0  0  0
  5  4  1  0  0  0  0
  7  6  1  0  0  0  0
  6  8  1  0  0  0  0
 10  8  1  0  0  0  0
  8  9  1  0  0  0  0
 10 11  1  0  0  0  0
M  END
>  <InstanceId>
4UFM_DGJ_A_1001

>  <ChemCompId>
DGJ

>  <PdbId>
4UFM

>  <ChainId>
A

>  <ResidueNumber>
1001

>  <InsertionCode>


>  <Model>
1

>  <AltIds>


>  <MissingHeavyAtoms>
0

>  <ObservedFormula>
C6 N O4

>  <Name>
(2R,3S,4R,5S)-2-(hydroxymethyl)piperidine-3,4,5-triol

>  <SystematicName>
(2R,3S,4R,5S)-2-(hydroxymethyl)piperidine-3,4,5-triol

>  <Synonyms>
1-deoxygalactonojirimycin

>  <Type>
NON-POLYMER

>  <Formula>
C6 H13 N O4

>  <MolecularWeight>
163.172

>  <ModifiedDate>
2011-12-02

>  <Parent>


>  <OneLetterCode>


>  <SubcomponentList>


>  <AmbiguousFlag>
N

>  <InChI>
InChI=1S/C6H13NO4/c8-2-3-5(10)6(11)4(9)1-7-3/h3-11H,1-2H2/t3-,4+,5+,6-/m1/s1

>  <InChIKey>
LXBIFEVIBLOUGU-DPYQTVNSSA-N

>  <SMILES>
C1[C@@H]([C@H]([C@H]([C@H](N1)CO)O)O)O

$$$$
