5J2X_6DL_A_301
  RCSB PDB08022001493D
Coordinates from PDB:5J2X:A:301 Model:1 without hydrogens
 22 24  0  0  0  0            999 V2000
    1.5760   12.2310   27.4000   C 0  0  0  0  0  0  0  0  0  0  0  0
    2.8120   11.6940   27.0600   C 0  0  0  0  0  0  0  0  0  0  0  0
    2.8550   10.8410   25.9660   C 0  0  0  0  0  0  0  0  0  0  0  0
    1.7670    9.6080   24.0860   C 0  0  0  0  0  0  0  0  0  0  0  0
    1.5400    7.7970   22.8270   C 0  0  0  0  0  0  0  0  0  0  0  0
    0.2210    7.7610   24.8820   C 0  0  0  0  0  0  0  0  0  0  0  0
   -1.0920    7.4810   24.4630   C 0  0  0  0  0  0  0  0  0  0  0  0
   -2.0010    6.8620   25.3110   C 0  0  0  0  0  0  0  0  0  0  0  0
    0.6300    7.3640   26.1560   C 0  0  0  0  0  0  0  0  0  0  0  0
    1.7000   10.5610   25.2060   C 0  0  0  0  0  0  0  0  0  0  0  0
    0.4640   11.0710   25.6060   C 0  0  0  0  0  0  0  0  0  0  0  0
    0.4370   11.9340   26.6760   C 0  0  0  0  0  0  0  0  0  0  0  0
    1.4300   13.0360   28.4720   O 0  0  0  0  0  0  0  0  0  0  0  0
    4.0480   10.3390   25.5800   O 0  0  0  0  0  0  0  0  0  0  0  0
    2.5300    9.7880   23.0460   N 0  0  0  0  0  0  0  0  0  0  0  0
    2.3830    8.6590   22.2360   N 0  0  0  0  0  0  0  0  0  0  0  0
    1.1440    8.3590   23.9900   N 0  0  0  0  0  0  0  0  0  0  0  0
   -1.5750    6.5020   26.5840   C 0  0  0  0  0  0  0  0  0  0  0  0
   -0.2730    6.7520   27.0130   C 0  0  0  0  0  0  0  0  0  0  0  0
    1.2110    6.7000   22.4030   O 0  0  0  0  0  0  0  0  0  0  0  0
   -1.5040    7.8230   23.2290   F 0  0  0  0  0  0  0  0  0  0  0  0
   -1.1520   12.8350   27.0950  Br 0  0  0  0  0  0  0  0  0  0  0  0
 16  5  1  0  0  0  0
 16 15  1  0  0  0  0
 20  5  2  0  0  0  0
  5 17  1  0  0  0  0
 15  4  2  0  0  0  0
 21  7  1  0  0  0  0
 17  4  1  0  0  0  0
 17  6  1  0  0  0  0
  4 10  1  0  0  0  0
  7  6  2  0  0  0  0
  7  8  1  0  0  0  0
  6  9  1  0  0  0  0
 10 11  2  0  0  0  0
 10  3  1  0  0  0  0
  8 18  2  0  0  0  0
 14  3  1  0  0  0  0
 11 12  1  0  0  0  0
  3  2  2  0  0  0  0
  9 19  2  0  0  0  0
 18 19  1  0  0  0  0
 12 22  1  0  0  0  0
 12  1  2  0  0  0  0
  2  1  1  0  0  0  0
  1 13  1  0  0  0  0
M  END
>  <InstanceId>
5J2X_6DL_A_301

>  <ChemCompId>
6DL

>  <PdbId>
5J2X

>  <ChainId>
A

>  <ResidueNumber>
301

>  <InsertionCode>


>  <Model>
1

>  <AltIds>


>  <MissingHeavyAtoms>
22

>  <ObservedFormula>
C14 N3 O3 Br F

>  <Name>
5-(5-Bromo-2,4-dihydroxy-phenyl)-4-(2-fluoro-phenyl)-2,4-dihydro-[1,2,4]triazol-3-one

>  <SystematicName>
3-[5-bromanyl-2,4-bis(oxidanyl)phenyl]-4-(2-fluorophenyl)-1~{H}-1,2,4-triazol-5-one

>  <Synonyms>


>  <Type>
NON-POLYMER

>  <Formula>
C14 H9 Br F N3 O3

>  <MolecularWeight>
366.142

>  <ModifiedDate>
2017-12-01

>  <Parent>


>  <OneLetterCode>


>  <SubcomponentList>


>  <AmbiguousFlag>
N

>  <InChI>
InChI=1S/C14H9BrFN3O3/c15-8-5-7(11(20)6-12(8)21)13-17-18-14(22)19(13)10-4-2-1-3-9(10)16/h1-6,20-21H,(H,18,22)

>  <InChIKey>
WTHWBOWCSOCLLT-UHFFFAOYSA-N

>  <SMILES>
c1ccc(c(c1)N2C(=NNC2=O)c3cc(c(cc3O)O)Br)F

$$$$
