2YAZ_UMP_A_1265
  RCSB PDB08012018223D
Coordinates from PDB:2YAZ:A:1265 Model:1 without hydrogens
 20 21  0  0  0  0            999 V2000
  -17.1980   34.9490   -7.8570   N 0  0  0  0  0  0  0  0  0  0  0  0
  -17.8520   34.1650   -6.9120   C 0  0  0  0  0  0  0  0  0  0  0  0
  -17.2960   33.9080   -5.6840   N 0  0  0  0  0  0  0  0  0  0  0  0
  -16.0580   34.4270   -5.3950   C 0  0  0  0  0  0  0  0  0  0  0  0
  -15.3830   35.2190   -6.3310   C 0  0  0  0  0  0  0  0  0  0  0  0
  -15.9650   35.4730   -7.5740   C 0  0  0  0  0  0  0  0  0  0  0  0
  -18.9510   33.6860   -7.1350   O 0  0  0  0  0  0  0  0  0  0  0  0
  -15.5740   34.1870   -4.2940   O 0  0  0  0  0  0  0  0  0  0  0  0
  -17.8810   35.2020   -9.1420   C 0  0  0  0  0  0  0  0  0  0  0  0
  -19.0690   36.1280   -8.9240   C 0  0  0  0  0  0  0  0  0  0  0  0
  -19.2780   36.7570  -10.2850   C 0  0  0  0  0  0  0  0  0  0  0  0
  -17.9830   36.5180  -11.0260   C 0  0  0  0  0  0  0  0  0  0  0  0
  -20.2710   36.0870  -11.0120   O 0  0  0  0  0  0  0  0  0  0  0  0
  -17.1190   35.7850  -10.1720   O 0  0  0  0  0  0  0  0  0  0  0  0
  -17.3920   37.8700  -11.4070   C 0  0  0  0  0  0  0  0  0  0  0  0
  -16.0860   37.6710  -11.9130   O 0  0  0  0  0  0  0  0  0  0  0  0
  -15.4530   38.8010  -12.8680   P 0  0  0  0  0  0  0  0  0  0  0  0
  -16.4410   38.8460  -14.0460   O 0  0  0  0  0  0  0  0  0  0  0  0
  -14.0090   38.4560  -13.1930   O 0  0  0  0  0  0  0  0  0  0  0  0
  -15.4410   40.1040  -12.1320   O 0  0  0  0  0  0  0  0  0  0  0  0
  1  2  1  0  0  0  0
  1  6  1  0  0  0  0
  1  9  1  0  0  0  0
  2  3  1  0  0  0  0
  2  7  2  0  0  0  0
  3  4  1  0  0  0  0
  4  5  1  0  0  0  0
  4  8  2  0  0  0  0
  5  6  2  0  0  0  0
  9 10  1  0  0  0  0
  9 14  1  0  0  0  0
 10 11  1  0  0  0  0
 11 12  1  0  0  0  0
 11 13  1  0  0  0  0
 12 14  1  0  0  0  0
 12 15  1  0  0  0  0
 15 16  1  0  0  0  0
 16 17  1  0  0  0  0
 17 18  2  0  0  0  0
 17 19  1  0  0  0  0
 17 20  1  0  0  0  0
M  END
>  <InstanceId>
2YAZ_UMP_A_1265

>  <ChemCompId>
UMP

>  <PdbId>
2YAZ

>  <ChainId>
A

>  <ResidueNumber>
1265

>  <InsertionCode>


>  <Model>
1

>  <AltIds>


>  <MissingHeavyAtoms>
0

>  <ObservedFormula>
C9 N2 O8 P

>  <Name>
2'-DEOXYURIDINE 5'-MONOPHOSPHATE

>  <SystematicName>
[(2R,3S,5R)-5-[2,4-bis(oxidanylidene)pyrimidin-1-yl]-3-oxidanyl-oxolan-2-yl]methyl dihydrogen phosphate

>  <Synonyms>
DUMP

>  <Type>
NON-POLYMER

>  <Formula>
C9 H13 N2 O8 P

>  <MolecularWeight>
308.182

>  <ModifiedDate>
2020-06-17

>  <Parent>


>  <OneLetterCode>
U

>  <SubcomponentList>


>  <AmbiguousFlag>
N

>  <InChI>
InChI=1S/C9H13N2O8P/c12-5-3-8(11-2-1-7(13)10-9(11)14)19-6(5)4-18-20(15,16)17/h1-2,5-6,8,12H,3-4H2,(H,10,13,14)(H2,15,16,17)/t5-,6+,8+/m0/s1

>  <InChIKey>
JSRLJPSBLDHEIO-SHYZEUOFSA-N

>  <SMILES>
C1[C@@H]([C@H](O[C@H]1N2C=CC(=O)NC2=O)COP(=O)(O)O)O

$$$$
