1EC3_MS3_A_501
  RCSB PDB08012014493D
Coordinates from PDB:1EC3:A:501 Model:1 without hydrogens
 56 59  0  0  0  0            999 V2000
   16.2580   22.0690    9.0200   C 0  0  0  0  0  0  0  0  0  0  0  0
   17.2040   20.9620    8.8780   C 0  0  0  0  0  0  0  0  0  0  0  0
   16.9140   19.7040    9.5810   C 0  0  0  0  0  0  0  0  0  0  0  0
   15.7160   19.5770   10.3940   C 0  0  0  0  0  0  0  0  0  0  0  0
   14.7770   20.6800   10.5380   C 0  0  0  0  0  0  0  0  0  0  0  0
   15.0370   21.9420    9.8500   C 0  0  0  0  0  0  0  0  0  0  0  0
   10.4100   23.8130    2.2450   C 0  0  0  0  0  0  0  0  0  0  0  0
    9.4040   22.8200    2.6310   C 0  0  0  0  0  0  0  0  0  0  0  0
    8.0210   23.1350    2.5040   C 0  0  0  0  0  0  0  0  0  0  0  0
    7.6300   24.4420    1.9920   C 0  0  0  0  0  0  0  0  0  0  0  0
    8.6190   25.4440    1.6050   C 0  0  0  0  0  0  0  0  0  0  0  0
   10.0230   25.1140    1.7390   C 0  0  0  0  0  0  0  0  0  0  0  0
   11.8450   23.4500    2.4080   C 0  0  0  0  0  0  0  0  0  0  0  0
   12.1250   23.1500    3.7970   O 0  0  0  0  0  0  0  0  0  0  0  0
   12.2080   24.3230    4.6820   C 0  0  0  0  0  0  0  0  0  0  0  0
   13.3310   24.1430    5.6680   C 0  0  0  0  0  0  0  0  0  0  0  0
   14.6550   23.8250    5.0060   C 0  0  0  0  0  0  0  0  0  0  0  0
   15.5920   23.0810    5.9630   C 0  0  0  0  0  0  0  0  0  0  0  0
   15.4570   21.5490    5.7820   C 0  0  0  0  0  0  0  0  0  0  0  0
   14.4400   20.9420    6.1090   O 0  0  0  0  0  0  0  0  0  0  0  0
   16.5820   20.9290    5.2320   N 0  0  0  0  0  0  0  0  0  0  0  0
   16.7610   19.5050    4.9450   C 0  0  0  0  0  0  0  0  0  0  0  0
   16.5350   19.1420    3.4090   C 0  0  0  0  0  0  0  0  0  0  0  0
   16.7320   17.6340    3.0590   C 0  0  0  0  0  0  0  0  0  0  0  0
   15.1190   19.4960    2.9270   C 0  0  0  0  0  0  0  0  0  0  0  0
   18.1860   19.1630    5.4220   C 0  0  0  0  0  0  0  0  0  0  0  0
   19.1530   19.7580    4.9570   O 0  0  0  0  0  0  0  0  0  0  0  0
   18.2680   18.1630    6.3790   N 0  0  0  0  0  0  0  0  0  0  0  0
   19.7630   17.7430    6.9210   C 0  0  0  0  0  0  0  0  0  0  0  0
   15.3830   23.4530    7.3890   O 0  0  0  0  0  0  0  0  0  0  0  0
   16.4990   23.3290    8.3300   C 0  0  0  0  0  0  0  0  0  0  0  0
   15.1810   25.0700    4.5250   O 0  0  0  0  0  0  0  0  0  0  0  0
   13.4490   25.3190    6.5620   O 0  0  0  0  0  0  0  0  0  0  0  0
   10.9830   24.4830    5.5140   C 0  0  0  0  0  0  0  0  0  0  0  0
   10.5450   23.5130    6.1670   O 0  0  0  0  0  0  0  0  0  0  0  0
   10.3910   25.7350    5.5150   N 0  0  0  0  0  0  0  0  0  0  0  0
    9.1760   26.0730    6.2960   C 0  0  0  0  0  0  0  0  0  0  0  0
    9.4930   26.8710    7.6470   C 0  0  0  0  0  0  0  0  0  0  0  0
    8.2210   27.2190    8.4920   C 0  0  0  0  0  0  0  0  0  0  0  0
   10.4960   26.1380    8.5530   C 0  0  0  0  0  0  0  0  0  0  0  0
    8.2830   26.9130    5.3820   C 0  0  0  0  0  0  0  0  0  0  0  0
    8.7040   27.9590    4.9540   O 0  0  0  0  0  0  0  0  0  0  0  0
    7.0430   26.3810    5.1240   N 0  0  0  0  0  0  0  0  0  0  0  0
    6.0610   27.0570    4.2700   C 0  0  0  0  0  0  0  0  0  0  0  0
    4.9800   26.1070    3.7940   C 0  0  0  0  0  0  0  0  0  0  0  0
    4.5590   26.1220    2.4130   C 0  0  0  0  0  0  0  0  0  0  0  0
    3.5060   25.1750    2.0040   C 0  0  0  0  0  0  0  0  0  0  0  0
    2.8930   24.2380    2.9630   C 0  0  0  0  0  0  0  0  0  0  0  0
    3.4020   24.3200    4.3310   C 0  0  0  0  0  0  0  0  0  0  0  0
    4.4050   25.2220    4.7190   N 0  0  0  0  0  0  0  0  0  0  0  0
   19.9980   18.0340    8.4200   C 0  0  0  0  0  0  0  0  0  0  0  0
   20.4810   19.3140    8.8350   C 0  0  0  0  0  0  0  0  0  0  0  0
   20.6980   19.5820   10.2450   C 0  0  0  0  0  0  0  0  0  0  0  0
   20.4220   18.5510   11.1980   C 0  0  0  0  0  0  0  0  0  0  0  0
   19.9380   17.2790   10.7380   C 0  0  0  0  0  0  0  0  0  0  0  0
   19.7390   17.0490    9.3780   N 0  0  0  0  0  0  0  0  0  0  0  0
  1  2  2  0  0  0  0
  1  6  1  0  0  0  0
  1 31  1  0  0  0  0
  2  3  1  0  0  0  0
  3  4  2  0  0  0  0
  4  5  1  0  0  0  0
  5  6  2  0  0  0  0
  7  8  2  0  0  0  0
  7 12  1  0  0  0  0
  7 13  1  0  0  0  0
  8  9  1  0  0  0  0
  9 10  2  0  0  0  0
 10 11  1  0  0  0  0
 11 12  2  0  0  0  0
 13 14  1  0  0  0  0
 14 15  1  0  0  0  0
 15 16  1  0  0  0  0
 15 34  1  0  0  0  0
 16 17  1  0  0  0  0
 16 33  1  0  0  0  0
 17 18  1  0  0  0  0
 17 32  1  0  0  0  0
 18 19  1  0  0  0  0
 18 30  1  0  0  0  0
 19 20  2  0  0  0  0
 19 21  1  0  0  0  0
 21 22  1  0  0  0  0
 22 23  1  0  0  0  0
 22 26  1  0  0  0  0
 23 24  1  0  0  0  0
 23 25  1  0  0  0  0
 26 27  2  0  0  0  0
 26 28  1  0  0  0  0
 28 29  1  0  0  0  0
 29 51  1  0  0  0  0
 30 31  1  0  0  0  0
 34 35  2  0  0  0  0
 34 36  1  0  0  0  0
 36 37  1  0  0  0  0
 37 38  1  0  0  0  0
 37 41  1  0  0  0  0
 38 39  1  0  0  0  0
 38 40  1  0  0  0  0
 41 42  2  0  0  0  0
 41 43  1  0  0  0  0
 43 44  1  0  0  0  0
 44 45  1  0  0  0  0
 45 46  2  0  0  0  0
 45 50  1  0  0  0  0
 46 47  1  0  0  0  0
 47 48  2  0  0  0  0
 48 49  1  0  0  0  0
 49 50  2  0  0  0  0
 51 52  2  0  0  0  0
 51 56  1  0  0  0  0
 52 53  1  0  0  0  0
 53 54  2  0  0  0  0
 54 55  1  0  0  0  0
 55 56  2  0  0  0  0
M  END
>  <InstanceId>
1EC3_MS3_A_501

>  <ChemCompId>
MS3

>  <PdbId>
1EC3

>  <ChainId>
A

>  <ResidueNumber>
501

>  <InsertionCode>


>  <Model>
1

>  <AltIds>


>  <MissingHeavyAtoms>
0

>  <ObservedFormula>
C42 N6 O8

>  <Name>
N,N-[2,5-O-DIBENZYL-GLUCARYL]-DI-[VALINYL-AMINOMETHANYL-PYRIDINE]

>  <SystematicName>
(2R,3R,4R,5R)-3,4-dihydroxy-N,N'-bis[(2S)-3-methyl-1-oxo-1-(pyridin-2-ylmethylamino)butan-2-yl]-2,5-bis(phenylmethoxy)hexanediamide

>  <Synonyms>
INHIBITOR MSA367

>  <Type>
NON-POLYMER

>  <Formula>
C42 H52 N6 O8

>  <MolecularWeight>
768.898

>  <ModifiedDate>
2011-06-04

>  <Parent>


>  <OneLetterCode>


>  <SubcomponentList>


>  <AmbiguousFlag>
N

>  <InChI>
InChI=1S/C42H52N6O8/c1-27(2)33(39(51)45-23-31-19-11-13-21-43-31)47-41(53)37(55-25-29-15-7-5-8-16-29)35(49)36(50)38(56-26-30-17-9-6-10-18-30)42(54)48-34(28(3)4)40(52)46-24-32-20-12-14-22-44-32/h5-22,27-28,33-38,49-50H,23-26H2,1-4H3,(H,45,51)(H,46,52)(H,47,53)(H,48,54)/t33-,34-,35+,36+,37+,38+/m0/s1

>  <InChIKey>
SVFLQOLSPWURCD-CXPJILFNSA-N

>  <SMILES>
CC(C)[C@@H](C(=O)NCc1ccccn1)NC(=O)[C@@H]([C@@H]([C@H]([C@H](C(=O)N[C@@H](C(C)C)C(=O)NCc2ccccn2)OCc3ccccc3)O)O)OCc4ccccc4

$$$$
