4FCQ_2N6_A_301
  RCSB PDB08012021413D
Coordinates from PDB:4FCQ:A:301 Model:1 without hydrogens
 21 23  0  0  0  0            999 V2000
   32.8040   13.4700   24.3610   C 0  0  0  0  0  0  0  0  0  0  0  0
   33.5560   12.1200   24.1830   C 0  0  0  0  0  0  0  0  0  0  0  0
   34.9050   12.2220   23.8690   C 0  0  0  0  0  0  0  0  0  0  0  0
   35.6920   11.0880   23.6760   C 0  0  0  0  0  0  0  0  0  0  0  0
   37.1840   11.2220   23.2850   C 0  0  0  0  0  0  0  0  0  0  0  0
   35.1260    9.8340   23.8150   C 0  0  0  0  0  0  0  0  0  0  0  0
   33.8090    9.7080   24.1660   C 0  0  0  0  0  0  0  0  0  0  0  0
   32.9980   10.8350   24.3190   C 0  0  0  0  0  0  0  0  0  0  0  0
   31.6890   10.6050   24.7470   C 0  0  0  0  0  0  0  0  0  0  0  0
   30.5210   10.9430   24.0760   C 0  0  0  0  0  0  0  0  0  0  0  0
   31.5500   10.0500   25.9750   N 0  0  0  0  0  0  0  0  0  0  0  0
   30.3250    9.8160   26.5520   C 0  0  0  0  0  0  0  0  0  0  0  0
   30.1770    9.0140   28.1200   S 0  0  0  0  0  0  0  0  0  0  0  0
   31.3040    7.5960   27.9840   C 0  0  0  0  0  0  0  0  0  0  0  0
   29.2090   10.1460   25.9140   N 0  0  0  0  0  0  0  0  0  0  0  0
   29.2950   10.6750   24.6810   C 0  0  0  0  0  0  0  0  0  0  0  0
   28.3600   11.0710   23.8550   N 0  0  0  0  0  0  0  0  0  0  0  0
   28.9140   11.5820   22.7500   C 0  0  0  0  0  0  0  0  0  0  0  0
   30.2340   11.5330   22.8490   C 0  0  0  0  0  0  0  0  0  0  0  0
   31.2310   11.9690   21.9060   C 0  0  0  0  0  0  0  0  0  0  0  0
   32.0500   12.2700   21.1850   N 0  0  0  0  0  0  0  0  0  0  0  0
 21 20  3  0  0  0  0
 20 19  1  0  0  0  0
 18 19  2  0  0  0  0
 18 17  1  0  0  0  0
 19 10  1  0  0  0  0
  5  4  1  0  0  0  0
  4  6  2  0  0  0  0
  4  3  1  0  0  0  0
  6  7  1  0  0  0  0
 17 16  1  0  0  0  0
  3  2  2  0  0  0  0
 10 16  2  0  0  0  0
 10  9  1  0  0  0  0
  7  8  2  0  0  0  0
  2  8  1  0  0  0  0
  2  1  1  0  0  0  0
  8  9  1  0  0  0  0
 16 15  1  0  0  0  0
  9 11  2  0  0  0  0
 15 12  2  0  0  0  0
 11 12  1  0  0  0  0
 12 13  1  0  0  0  0
 14 13  1  0  0  0  0
M  END
>  <InstanceId>
4FCQ_2N6_A_301

>  <ChemCompId>
2N6

>  <PdbId>
4FCQ

>  <ChainId>
A

>  <ResidueNumber>
301

>  <InsertionCode>


>  <Model>
1

>  <AltIds>


>  <MissingHeavyAtoms>
0

>  <ObservedFormula>
C16 N4 S

>  <Name>
4-(2,4-dimethylphenyl)-2-(methylsulfanyl)-7H-pyrrolo[2,3-d]pyrimidine-5-carbonitrile

>  <SystematicName>
4-(2,4-dimethylphenyl)-2-methylsulfanyl-7H-pyrrolo[2,3-d]pyrimidine-5-carbonitrile

>  <Synonyms>


>  <Type>
NON-POLYMER

>  <Formula>
C16 H14 N4 S

>  <MolecularWeight>
294.374

>  <ModifiedDate>
2012-10-19

>  <Parent>


>  <OneLetterCode>


>  <SubcomponentList>


>  <AmbiguousFlag>
N

>  <InChI>
InChI=1S/C16H14N4S/c1-9-4-5-12(10(2)6-9)14-13-11(7-17)8-18-15(13)20-16(19-14)21-3/h4-6,8H,1-3H3,(H,18,19,20)

>  <InChIKey>
LXUVFEGNZXPXCA-UHFFFAOYSA-N

>  <SMILES>
Cc1ccc(c(c1)C)c2c3c(c[nH]c3nc(n2)SC)C#N

$$$$
