1C5C_TK4_L_1001
  RCSB PDB08012014403D
Coordinates from PDB:1C5C:L:1001 Model:1 without hydrogens
 22 23  0  0  0  0            999 V2000
   20.2450   15.1870  158.0290   C 0  0  0  0  0  0  0  0  0  0  0  0
   20.6260   15.3070  159.3580   C 0  0  0  0  0  0  0  0  0  0  0  0
   21.9260   15.8510  159.6800   C 0  0  0  0  0  0  0  0  0  0  0  0
   22.7730   16.2440  158.6590   C 0  0  0  0  0  0  0  0  0  0  0  0
   23.2240   16.5140  156.1820   C 0  0  0  0  0  0  0  0  0  0  0  0
   22.8280   16.3870  154.8610   C 0  0  0  0  0  0  0  0  0  0  0  0
   21.5430   15.8490  154.5560   C 0  0  0  0  0  0  0  0  0  0  0  0
   20.6860   15.4520  155.5710   C 0  0  0  0  0  0  0  0  0  0  0  0
   21.1110   15.5890  156.9510   C 0  0  0  0  0  0  0  0  0  0  0  0
   22.3850   16.1220  157.2830   C 0  0  0  0  0  0  0  0  0  0  0  0
   18.6070   14.5040  157.5330   S 0  0  0  0  0  0  0  0  0  0  0  0
   17.8370   14.2390  158.8350   O 0  0  0  0  0  0  0  0  0  0  0  0
   17.8300   15.4390  156.7020   O 0  0  0  0  0  0  0  0  0  0  0  0
   18.9410   13.1800  156.9470   O 0  0  0  0  0  0  0  0  0  0  0  0
   19.7160   14.8860  160.4130   N 0  0  0  0  0  0  0  0  0  0  0  0
   20.1450   14.4100  161.6830   C 0  0  0  0  0  0  0  0  0  0  0  0
   21.3250   14.4200  162.0140   O 0  0  0  0  0  0  0  0  0  0  0  0
   19.0790   13.8670  162.6070   C 0  0  0  0  0  0  0  0  0  0  0  0
   24.8620   17.1990  156.5780   S 0  0  0  0  0  0  0  0  0  0  0  0
   25.5410   17.4740  155.2690   O 0  0  0  0  0  0  0  0  0  0  0  0
   24.7390   18.4600  157.3680   O 0  0  0  0  0  0  0  0  0  0  0  0
   25.5630   16.1140  157.3150   O 0  0  0  0  0  0  0  0  0  0  0  0
  1  2  2  0  0  0  0
  1  9  1  0  0  0  0
  1 11  1  0  0  0  0
  2  3  1  0  0  0  0
  2 15  1  0  0  0  0
  3  4  2  0  0  0  0
  4 10  1  0  0  0  0
  5  6  2  0  0  0  0
  5 10  1  0  0  0  0
  5 19  1  0  0  0  0
  6  7  1  0  0  0  0
  7  8  2  0  0  0  0
  8  9  1  0  0  0  0
  9 10  2  0  0  0  0
 11 12  1  0  0  0  0
 11 13  2  0  0  0  0
 11 14  2  0  0  0  0
 15 16  1  0  0  0  0
 16 17  2  0  0  0  0
 16 18  1  0  0  0  0
 19 20  1  0  0  0  0
 19 21  2  0  0  0  0
 19 22  2  0  0  0  0
M  END
>  <InstanceId>
1C5C_TK4_L_1001

>  <ChemCompId>
TK4

>  <PdbId>
1C5C

>  <ChainId>
L

>  <ResidueNumber>
1001

>  <InsertionCode>


>  <Model>
1

>  <AltIds>


>  <MissingHeavyAtoms>
0

>  <ObservedFormula>
C12 N O7 S2

>  <Name>
2-ACETYLAMINO-NAPTHALENE-1,5-DISULFONIC ACID

>  <SystematicName>
2-acetamidonaphthalene-1,5-disulfonic acid

>  <Synonyms>


>  <Type>
NON-POLYMER

>  <Formula>
C12 H11 N O7 S2

>  <MolecularWeight>
345.348

>  <ModifiedDate>
2011-06-04

>  <Parent>


>  <OneLetterCode>


>  <SubcomponentList>


>  <AmbiguousFlag>
N

>  <InChI>
InChI=1S/C12H11NO7S2/c1-7(14)13-10-6-5-8-9(12(10)22(18,19)20)3-2-4-11(8)21(15,16)17/h2-6H,1H3,(H,13,14)(H,15,16,17)(H,18,19,20)

>  <InChIKey>
WGOQGHNONXFNJQ-UHFFFAOYSA-N

>  <SMILES>
CC(=O)Nc1ccc2c(c1S(=O)(=O)O)cccc2S(=O)(=O)O

$$$$
