1HVJ_A78_A_800
  RCSB PDB08012015063D
Coordinates from PDB:1HVJ:A:800 Model:1 without hydrogens
 57 60  0  0  0  0            999 V2000
    3.5270    3.3460   10.7580   C 0  0  0  0  0  0  0  0  0  0  0  0
    3.3350    4.0090   11.7660   O 0  0  0  0  0  0  0  0  0  0  0  0
    4.0100    3.9090    9.6330   N 0  0  0  0  0  0  0  0  0  0  0  0
    4.2050    3.1390    8.4010   C 0  0  0  0  0  0  0  0  0  0  0  0
    4.4000    5.3360    9.6910   C 0  0  0  0  0  0  0  0  0  0  0  0
    5.8860    5.5810    9.5290   C 0  0  0  0  0  0  0  0  0  0  0  0
    6.4060    5.7230    8.2420   C 0  0  0  0  0  0  0  0  0  0  0  0
    6.6350    5.6520   10.6390   N 0  3  0  0  0  0  0  0  0  0  0  0
    7.7800    5.9410    8.1120   C 0  0  0  0  0  0  0  0  0  0  0  0
    7.9520    5.8470   10.5070   C 0  0  0  0  0  0  0  0  0  0  0  0
    8.5730    5.9970    9.2640   C 0  0  0  0  0  0  0  0  0  0  0  0
    3.2690    2.0450   10.7340   N 0  0  0  0  0  0  0  0  0  0  0  0
    2.9070    1.3460   11.9890   C 0  0  0  0  0  0  0  0  0  0  0  0
    4.0640    0.4480   12.4540   C 0  0  0  0  0  0  0  0  0  0  0  0
    4.1130   -0.6900   12.0270   O 0  0  0  0  0  0  0  0  0  0  0  0
    1.5820    0.5560   11.7900   C 0  0  0  0  0  0  0  0  0  0  0  0
    1.1550   -0.2390   13.0310   C 0  0  0  0  0  0  0  0  0  0  0  0
    0.4170    1.4470   11.3060   C 0  0  0  0  0  0  0  0  0  0  0  0
    4.9740    0.9640   13.3080   N 0  0  0  0  0  0  0  0  0  0  0  0
    6.1680    0.2220   13.7830   C 0  0  0  0  0  0  0  0  0  0  0  0
    7.4380    0.9690   13.4190   C 0  0  0  0  0  0  0  0  0  0  0  0
    7.6880    0.9710   11.9480   C 0  0  0  0  0  0  0  0  0  0  0  0
    7.2460    2.0350   11.1560   C 0  0  0  0  0  0  0  0  0  0  0  0
    7.4670    2.0110    9.7730   C 0  0  0  0  0  0  0  0  0  0  0  0
    8.1230    0.9320    9.1940   C 0  0  0  0  0  0  0  0  0  0  0  0
    8.5720   -0.1250    9.9970   C 0  0  0  0  0  0  0  0  0  0  0  0
    8.3570   -0.1110   11.3790   C 0  0  0  0  0  0  0  0  0  0  0  0
    6.2000    0.1220   15.2830   C 0  0  0  0  0  0  0  0  0  0  0  0
    5.1250   -0.2650   17.3020   O 0  0  0  0  0  0  0  0  0  0  0  0
    4.9470   -0.4390   15.9060   C 0  0  0  0  0  0  0  0  0  0  0  0
    5.8120   -2.7360   16.1800   N 0  0  0  0  0  0  0  0  0  0  0  0
    4.7250   -1.9340   15.6160   C 0  0  0  0  0  0  0  0  0  0  0  0
    3.3720   -2.4220   16.1650   C 0  0  0  0  0  0  0  0  0  0  0  0
    3.1250   -3.9070   16.0270   C 0  0  0  0  0  0  0  0  0  0  0  0
    3.3910   -4.7760   17.0980   C 0  0  0  0  0  0  0  0  0  0  0  0
    3.1550   -6.1500   16.9550   C 0  0  0  0  0  0  0  0  0  0  0  0
    2.6560   -6.6690   15.7520   C 0  0  0  0  0  0  0  0  0  0  0  0
    2.3840   -5.8090   14.6860   C 0  0  0  0  0  0  0  0  0  0  0  0
    2.6190   -4.4280   14.8220   C 0  0  0  0  0  0  0  0  0  0  0  0
    7.0530   -5.8530   16.7090   N 0  0  0  0  0  0  0  0  0  0  0  0
    7.4760   -4.4810   16.3820   C 0  0  0  0  0  0  0  0  0  0  0  0
    6.4510   -3.7120   15.5290   C 0  0  0  0  0  0  0  0  0  0  0  0
    6.2670   -3.9610   14.3500   O 0  0  0  0  0  0  0  0  0  0  0  0
    8.8220   -4.4670   15.6440   C 0  0  0  0  0  0  0  0  0  0  0  0
    9.2900   -3.0270   15.3250   C 0  0  0  0  0  0  0  0  0  0  0  0
    9.9000   -5.1910   16.4690   C 0  0  0  0  0  0  0  0  0  0  0  0
    6.9290   -6.3640   17.9260   C 0  0  0  0  0  0  0  0  0  0  0  0
    7.2550   -5.7600   18.9360   O 0  0  0  0  0  0  0  0  0  0  0  0
    6.4020   -7.6110   17.9990   N 0  0  0  0  0  0  0  0  0  0  0  0
    6.0120   -8.3800   16.8120   C 0  0  0  0  0  0  0  0  0  0  0  0
    6.1420   -8.2340   19.2990   C 0  0  0  0  0  0  0  0  0  0  0  0
    4.8150   -7.8110   19.8750   C 0  0  0  0  0  0  0  0  0  0  0  0
    3.7140   -8.6790   19.8170   C 0  0  0  0  0  0  0  0  0  0  0  0
    4.7670   -6.5870   20.4230   N 0  3  0  0  0  0  0  0  0  0  0  0
    2.5000   -8.2420   20.3570   C 0  0  0  0  0  0  0  0  0  0  0  0
    3.5920   -6.1840   20.9340   C 0  0  0  0  0  0  0  0  0  0  0  0
    2.4320   -6.9690   20.9320   C 0  0  0  0  0  0  0  0  0  0  0  0
  1  2  2  0  0  0  0
  1  3  1  0  0  0  0
  1 12  1  0  0  0  0
  3  4  1  0  0  0  0
  3  5  1  0  0  0  0
  5  6  1  0  0  0  0
  6  7  2  0  0  0  0
  6  8  1  0  0  0  0
  7  9  1  0  0  0  0
  8 10  2  0  0  0  0
  9 11  2  0  0  0  0
 10 11  1  0  0  0  0
 12 13  1  0  0  0  0
 13 14  1  0  0  0  0
 13 16  1  0  0  0  0
 14 15  2  0  0  0  0
 14 19  1  0  0  0  0
 16 17  1  0  0  0  0
 16 18  1  0  0  0  0
 19 20  1  0  0  0  0
 20 21  1  0  0  0  0
 20 28  1  0  0  0  0
 21 22  1  0  0  0  0
 22 23  2  0  0  0  0
 22 27  1  0  0  0  0
 23 24  1  0  0  0  0
 24 25  2  0  0  0  0
 25 26  1  0  0  0  0
 26 27  2  0  0  0  0
 28 30  1  0  0  0  0
 29 30  1  0  0  0  0
 30 32  1  0  0  0  0
 31 32  1  0  0  0  0
 31 42  1  0  0  0  0
 32 33  1  0  0  0  0
 33 34  1  0  0  0  0
 34 35  2  0  0  0  0
 34 39  1  0  0  0  0
 35 36  1  0  0  0  0
 36 37  2  0  0  0  0
 37 38  1  0  0  0  0
 38 39  2  0  0  0  0
 40 41  1  0  0  0  0
 40 47  1  0  0  0  0
 41 42  1  0  0  0  0
 41 44  1  0  0  0  0
 42 43  2  0  0  0  0
 44 45  1  0  0  0  0
 44 46  1  0  0  0  0
 47 48  2  0  0  0  0
 47 49  1  0  0  0  0
 49 50  1  0  0  0  0
 49 51  1  0  0  0  0
 51 52  1  0  0  0  0
 52 53  2  0  0  0  0
 52 54  1  0  0  0  0
 53 55  1  0  0  0  0
 54 56  2  0  0  0  0
 55 57  2  0  0  0  0
 56 57  1  0  0  0  0
M  CHG  2   8   1  54   1
M  END
>  <InstanceId>
1HVJ_A78_A_800

>  <ChemCompId>
A78

>  <PdbId>
1HVJ

>  <ChainId>
A

>  <ResidueNumber>
800

>  <InsertionCode>


>  <Model>
1

>  <AltIds>


>  <MissingHeavyAtoms>
0

>  <ObservedFormula>
C44 N8 O5

>  <Name>
N-{1-BENZYL-3-HYDROXY-4-[3-METHYL-2-(3-METHYL-3-PYRIDIN-2-YLMETHYL-UREIDO)-BUTYRYLAMINO]-5-PHENYL-PENTYL}-3-METHYL-2-(3-METHYL-3-PYRIDIN-2-YLMETHYL-UREIDO)-BUTYRAMIDE

>  <SystematicName>
(2S)-N-[(2S,4S,5S)-4-hydroxy-5-[[(2S)-3-methyl-2-[(methyl-(pyridin-1-ium-2-ylmethyl)carbamoyl)amino]butanoyl]amino]-1,6-diphenyl-hexan-2-yl]-3-methyl-2-[(methyl-(pyridin-1-ium-2-ylmethyl)carbamoyl)amino]butanamide

>  <Synonyms>


>  <Type>
NON-POLYMER

>  <Formula>
C44 H60 N8 O5

>  <MolecularWeight>
780.998

>  <ModifiedDate>
2011-06-04

>  <Parent>


>  <OneLetterCode>


>  <SubcomponentList>


>  <AmbiguousFlag>
N

>  <InChI>
InChI=1S/C44H58N8O5/c1-30(2)39(49-43(56)51(5)28-34-21-13-15-23-45-34)41(54)47-36(25-32-17-9-7-10-18-32)27-38(53)37(26-33-19-11-8-12-20-33)48-42(55)40(31(3)4)50-44(57)52(6)29-35-22-14-16-24-46-35/h7-24,30-31,36-40,53H,25-29H2,1-6H3,(H,47,54)(H,48,55)(H,49,56)(H,50,57)/p+2/t36-,37-,38-,39-,40-/m0/s1

>  <InChIKey>
KTXGTJRUYOGULA-HECCNADXSA-P

>  <SMILES>
CC(C)[C@@H](C(=O)N[C@@H](Cc1ccccc1)C[C@@H]([C@H](Cc2ccccc2)NC(=O)[C@H](C(C)C)NC(=O)N(C)Cc3cccc[nH+]3)O)NC(=O)N(C)Cc4cccc[nH+]4

$$$$
