1Q72_COC_H_401
  RCSB PDB08012015463D
Coordinates from PDB:1Q72:H:401 Model:1 without hydrogens
 22 24  0  0  0  0            999 V2000
   26.3810   -4.0800   26.7430   C 0  0  0  0  0  0  0  0  0  0  0  0
   25.5390   -2.9110   26.5920   O 0  0  0  0  0  0  0  0  0  0  0  0
   24.2900   -3.0860   26.1160   C 0  0  0  0  0  0  0  0  0  0  0  0
   23.6110   -4.0370   26.3700   O 0  0  0  0  0  0  0  0  0  0  0  0
   23.9380   -1.8880   25.2240   C 0  0  0  0  0  0  0  0  0  0  0  0
   22.5220   -1.3510   25.6380   C 0  0  0  0  0  0  0  0  0  0  0  0
   21.5380   -2.4100   25.3550   N 0  0  0  0  0  0  0  0  0  0  0  0
   20.2770   -2.2520   26.1220   C 0  0  0  0  0  0  0  0  0  0  0  0
   22.0760   -0.0980   24.8530   C 0  0  0  0  0  0  0  0  0  0  0  0
   21.2930   -0.6930   23.6530   C 0  0  0  0  0  0  0  0  0  0  0  0
   21.3600   -2.2180   23.9070   C 0  0  0  0  0  0  0  0  0  0  0  0
   22.5960   -2.8680   23.2080   C 0  0  0  0  0  0  0  0  0  0  0  0
   23.9070   -2.2180   23.6970   C 0  0  0  0  0  0  0  0  0  0  0  0
   25.0570   -3.0600   23.3510   O 0  0  0  0  0  0  0  0  0  0  0  0
   26.2790   -2.4850   23.2340   C 0  0  0  0  0  0  0  0  0  0  0  0
   26.4940   -1.3160   23.4500   O 0  0  0  0  0  0  0  0  0  0  0  0
   27.3340   -3.4750   22.7920   C 0  0  0  0  0  0  0  0  0  0  0  0
   28.6940   -3.1000   22.9020   C 0  0  0  0  0  0  0  0  0  0  0  0
   29.6990   -4.0100   22.4880   C 0  0  0  0  0  0  0  0  0  0  0  0
   29.3650   -5.2450   21.9850   C 0  0  0  0  0  0  0  0  0  0  0  0
   28.0320   -5.6150   21.8770   C 0  0  0  0  0  0  0  0  0  0  0  0
   27.0100   -4.7280   22.2830   C 0  0  0  0  0  0  0  0  0  0  0  0
  1  2  1  0  0  0  0
  2  3  1  0  0  0  0
  3  4  2  0  0  0  0
  3  5  1  0  0  0  0
  5  6  1  0  0  0  0
  5 13  1  0  0  0  0
  6  7  1  0  0  0  0
  6  9  1  0  0  0  0
  7  8  1  0  0  0  0
  7 11  1  0  0  0  0
  9 10  1  0  0  0  0
 10 11  1  0  0  0  0
 11 12  1  0  0  0  0
 12 13  1  0  0  0  0
 13 14  1  0  0  0  0
 14 15  1  0  0  0  0
 15 16  2  0  0  0  0
 15 17  1  0  0  0  0
 17 18  2  0  0  0  0
 17 22  1  0  0  0  0
 18 19  1  0  0  0  0
 19 20  2  0  0  0  0
 20 21  1  0  0  0  0
 21 22  2  0  0  0  0
M  END
>  <InstanceId>
1Q72_COC_H_401

>  <ChemCompId>
COC

>  <PdbId>
1Q72

>  <ChainId>
H

>  <ResidueNumber>
401

>  <InsertionCode>


>  <Model>
1

>  <AltIds>


>  <MissingHeavyAtoms>
0

>  <ObservedFormula>
C17 N O4

>  <Name>
COCAINE

>  <SystematicName>
methyl (1R,2R,3S,5S,8S)-8-methyl-3-(phenylcarbonyloxy)-8-azabicyclo[3.2.1]octane-2-carboxylate

>  <Synonyms>


>  <Type>
NON-POLYMER

>  <Formula>
C17 H21 N O4

>  <MolecularWeight>
303.353

>  <ModifiedDate>
2011-06-04

>  <Parent>


>  <OneLetterCode>


>  <SubcomponentList>


>  <AmbiguousFlag>
N

>  <InChI>
InChI=1S/C17H21NO4/c1-18-12-8-9-13(18)15(17(20)21-2)14(10-12)22-16(19)11-6-4-3-5-7-11/h3-7,12-15H,8-10H2,1-2H3/t12-,13+,14-,15+/m0/s1

>  <InChIKey>
ZPUCINDJVBIVPJ-LJISPDSOSA-N

>  <SMILES>
C[N@]1[C@H]2CC[C@@H]1[C@H]([C@H](C2)OC(=O)c3ccccc3)C(=O)OC

$$$$
