3DC3_AZM_A_263
  RCSB PDB08012018493D
Coordinates from PDB:3DC3:A:263 Model:1 without hydrogens
 13 13  0  0  0  0            999 V2000
   -5.1710    2.0530   15.9880   C 0  0  0  0  0  0  0  0  0  0  0  0
   -4.7260    3.8470   14.5620   C 0  0  0  0  0  0  0  0  0  0  0  0
   -5.5320    5.7530   13.2640   C 0  0  0  0  0  0  0  0  0  0  0  0
   -5.2070    6.6980   12.4970   C 0  0  0  0  0  0  0  0  0  0  0  0
   -5.4920   -0.5860   16.3150   N 0  0  0  0  0  0  0  0  0  0  0  0
   -3.5950    3.2790   15.0570   N 0  0  0  0  0  0  0  0  0  0  0  0
   -3.8530    2.1680   15.9320   N 0  0  0  0  0  0  0  0  0  0  0  0
   -4.6410    5.0950   13.9610   N 0  0  0  0  0  0  0  0  0  0  0  0
   -5.4940    0.9270   18.2800   O 0  0  0  0  0  0  0  0  0  0  0  0
   -7.3740    1.0210   16.7110   O 0  0  0  0  0  0  0  0  0  0  0  0
   -6.9800    5.6060   13.5770   O 0  0  0  0  0  0  0  0  0  0  0  0
   -5.9630    0.8210   16.9040   S 0  0  0  0  0  0  0  0  0  0  0  0
   -6.0650    3.3190   15.2400   S 0  0  0  0  0  0  0  0  0  0  0  0
  1  7  2  0  0  0  0
  1 12  1  0  0  0  0
  1 13  1  0  0  0  0
  2  6  2  0  0  0  0
  2  8  1  0  0  0  0
  2 13  1  0  0  0  0
  3  4  1  0  0  0  0
  3  8  1  0  0  0  0
  3 11  2  0  0  0  0
  5 12  1  0  0  0  0
  6  7  1  0  0  0  0
  9 12  2  0  0  0  0
 10 12  2  0  0  0  0
M  END
>  <InstanceId>
3DC3_AZM_A_263

>  <ChemCompId>
AZM

>  <PdbId>
3DC3

>  <ChainId>
A

>  <ResidueNumber>
263

>  <InsertionCode>


>  <Model>
1

>  <AltIds>


>  <MissingHeavyAtoms>
0

>  <ObservedFormula>
C4 N4 O3 S2

>  <Name>
5-ACETAMIDO-1,3,4-THIADIAZOLE-2-SULFONAMIDE

>  <SystematicName>
N-(5-sulfamoyl-1,3,4-thiadiazol-2-yl)ethanamide

>  <Synonyms>


>  <Type>
NON-POLYMER

>  <Formula>
C4 H6 N4 O3 S2

>  <MolecularWeight>
222.245

>  <ModifiedDate>
2011-06-04

>  <Parent>


>  <OneLetterCode>


>  <SubcomponentList>


>  <AmbiguousFlag>
N

>  <InChI>
InChI=1S/C4H6N4O3S2/c1-2(9)6-3-7-8-4(12-3)13(5,10)11/h1H3,(H2,5,10,11)(H,6,7,9)

>  <InChIKey>
BZKPWHYZMXOIDC-UHFFFAOYSA-N

>  <SMILES>
CC(=O)Nc1nnc(s1)S(=O)(=O)N

$$$$
