1BP0_UMP_A_317
  RCSB PDB08012014383D
Coordinates from PDB:1BP0:A:317 Model:1 without hydrogens
 20 21  0  0  0  0            999 V2000
   14.6320   49.3690  -54.0670   N 0  0  0  0  0  0  0  0  0  0  0  0
   13.7590   48.3600  -53.6130   C 0  0  0  0  0  0  0  0  0  0  0  0
   12.9080   48.7720  -52.6010   N 0  0  0  0  0  0  0  0  0  0  0  0
   12.8720   50.0530  -52.0340   C 0  0  0  0  0  0  0  0  0  0  0  0
   13.8180   51.0080  -52.5780   C 0  0  0  0  0  0  0  0  0  0  0  0
   14.6710   50.5960  -53.5940   C 0  0  0  0  0  0  0  0  0  0  0  0
   13.6830   47.1930  -54.0040   O 0  0  0  0  0  0  0  0  0  0  0  0
   12.0820   50.3120  -51.1310   O 0  0  0  0  0  0  0  0  0  0  0  0
   15.5860   49.1780  -55.1500   C 0  0  0  0  0  0  0  0  0  0  0  0
   14.9980   48.8780  -56.5280   C 0  0  0  0  0  0  0  0  0  0  0  0
   16.2310   49.0110  -57.4080   C 0  0  0  0  0  0  0  0  0  0  0  0
   16.9300   50.3020  -56.9630   C 0  0  0  0  0  0  0  0  0  0  0  0
   17.0860   47.8970  -57.0730   O 0  0  0  0  0  0  0  0  0  0  0  0
   16.5220   50.3020  -55.5030   O 0  0  0  0  0  0  0  0  0  0  0  0
   16.3330   51.5210  -57.6790   C 0  0  0  0  0  0  0  0  0  0  0  0
   16.7830   51.5820  -59.0900   O 0  0  0  0  0  0  0  0  0  0  0  0
   15.8340   52.2120  -60.1670   P 0  0  0  0  0  0  0  0  0  0  0  0
   14.7850   51.2090  -60.2900   O 0  0  0  0  0  0  0  0  0  0  0  0
   15.2740   53.4900  -59.6740   O 0  0  0  0  0  0  0  0  0  0  0  0
   16.3700   52.4670  -61.5100   O 0  0  0  0  0  0  0  0  0  0  0  0
  1  2  1  0  0  0  0
  1  6  1  0  0  0  0
  1  9  1  0  0  0  0
  2  3  1  0  0  0  0
  2  7  2  0  0  0  0
  3  4  1  0  0  0  0
  4  5  1  0  0  0  0
  4  8  2  0  0  0  0
  5  6  2  0  0  0  0
  9 10  1  0  0  0  0
  9 14  1  0  0  0  0
 10 11  1  0  0  0  0
 11 12  1  0  0  0  0
 11 13  1  0  0  0  0
 12 14  1  0  0  0  0
 12 15  1  0  0  0  0
 15 16  1  0  0  0  0
 16 17  1  0  0  0  0
 17 18  2  0  0  0  0
 17 19  1  0  0  0  0
 17 20  1  0  0  0  0
M  END
>  <InstanceId>
1BP0_UMP_A_317

>  <ChemCompId>
UMP

>  <PdbId>
1BP0

>  <ChainId>
A

>  <ResidueNumber>
317

>  <InsertionCode>


>  <Model>
1

>  <AltIds>


>  <MissingHeavyAtoms>
0

>  <ObservedFormula>
C9 N2 O8 P

>  <Name>
2'-DEOXYURIDINE 5'-MONOPHOSPHATE

>  <SystematicName>
[(2R,3S,5R)-5-[2,4-bis(oxidanylidene)pyrimidin-1-yl]-3-oxidanyl-oxolan-2-yl]methyl dihydrogen phosphate

>  <Synonyms>
DUMP

>  <Type>
NON-POLYMER

>  <Formula>
C9 H13 N2 O8 P

>  <MolecularWeight>
308.182

>  <ModifiedDate>
2020-06-17

>  <Parent>


>  <OneLetterCode>
U

>  <SubcomponentList>


>  <AmbiguousFlag>
N

>  <InChI>
InChI=1S/C9H13N2O8P/c12-5-3-8(11-2-1-7(13)10-9(11)14)19-6(5)4-18-20(15,16)17/h1-2,5-6,8,12H,3-4H2,(H,10,13,14)(H2,15,16,17)/t5-,6+,8+/m0/s1

>  <InChIKey>
JSRLJPSBLDHEIO-SHYZEUOFSA-N

>  <SMILES>
C1[C@@H]([C@H](O[C@H]1N2C=CC(=O)NC2=O)COP(=O)(O)O)O

$$$$
