5T9U_7HG_A_300
  RCSB PDB08022003003D
Coordinates from PDB:5T9U:A:300 Model:1 without hydrogens
 46 48  0  0  0  0            999 V2000
   72.8350   51.6620   66.8570   C 0  0  0  0  0  0  0  0  0  0  0  0
   73.4490   51.9900   65.4480   C 0  0  0  0  0  0  0  0  0  0  0  0
   72.7410   53.1370   64.6570   C 0  0  0  0  0  0  0  0  0  0  0  0
   73.3690   53.2950   63.2290   C 0  0  0  0  0  0  0  0  0  0  0  0
   72.7630   54.5130   62.5710   C 0  0  0  0  0  0  0  0  0  0  0  0
   75.2780   61.6520   64.7360   C 0  0  0  0  0  0  0  0  0  0  0  0
   75.2170   62.0430   66.2200   C 0  0  0  0  0  0  0  0  0  0  0  0
   75.7920   60.9490   67.1150   C 0  0  0  0  0  0  0  0  0  0  0  0
   75.1860   59.6650   66.7520   N 0  0  0  0  0  0  0  0  0  0  0  0
   75.3650   59.2010   65.4350   N 0  0  0  0  0  0  0  0  0  0  0  0
   74.8550   60.1970   64.4540   C 0  0  0  0  0  0  0  0  0  0  0  0
   75.2180   59.7280   63.0470   C 0  0  0  0  0  0  0  0  0  0  0  0
   74.3650   60.2510   62.1160   O 0  0  0  0  0  0  0  0  0  0  0  0
   76.1390   58.9830   62.7590   O 0  0  0  0  0  0  0  0  0  0  0  0
   74.6560   59.8650   60.7540   C 0  0  0  0  0  0  0  0  0  0  0  0
   73.6390   58.8330   60.2450   C 0  0  0  0  0  0  0  0  0  0  0  0
   73.9250   57.5330   60.9130   C 0  0  0  0  0  0  0  0  0  0  0  0
   73.0270   56.6750   61.4100   C 0  0  0  0  0  0  0  0  0  0  0  0
   73.5210   55.4700   62.0330   C 0  0  0  0  0  0  0  0  0  0  0  0
   73.0640   52.7480   67.9210   C 0  0  0  0  0  0  0  0  0  0  0  0
   72.1770   53.1360   68.6620   O 0  0  0  0  0  0  0  0  0  0  0  0
   73.4090   50.3690   67.4520   C 0  0  0  0  0  0  0  0  0  0  0  0
   72.7210   54.5210   65.3540   C 0  0  0  0  0  0  0  0  0  0  0  0
   73.1370   52.1020   62.4630   O 0  0  0  0  0  0  0  0  0  0  0  0
   74.8550   52.3070   65.5180   O 0  0  0  0  0  0  0  0  0  0  0  0
   74.0700   51.9060   61.4040   C 0  0  0  0  0  0  0  0  0  0  0  0
   75.6990   51.3870   64.8190   C 0  0  0  0  0  0  0  0  0  0  0  0
   74.3630   53.2740   67.9490   N 0  0  0  0  0  0  0  0  0  0  0  0
   74.7630   54.3360   68.8780   C 0  0  0  0  0  0  0  0  0  0  0  0
   74.9260   55.4910   67.8930   C 0  0  0  0  0  0  0  0  0  0  0  0
   75.8130   55.5410   67.0280   O 0  0  0  0  0  0  0  0  0  0  0  0
   75.9860   54.1180   69.7900   C 0  0  0  0  0  0  0  0  0  0  0  0
   76.2260   55.3770   70.6390   C 0  0  0  0  0  0  0  0  0  0  0  0
   75.7560   52.8890   70.6670   C 0  0  0  0  0  0  0  0  0  0  0  0
   74.4370   58.9380   67.6410   C 0  0  0  0  0  0  0  0  0  0  0  0
   73.8140   57.6240   67.1620   C 0  0  0  0  0  0  0  0  0  0  0  0
   74.2270   59.2960   68.8080   O 0  0  0  0  0  0  0  0  0  0  0  0
   72.3090   57.7220   66.8410   C 0  0  0  0  0  0  0  0  0  0  0  0
   71.8880   58.9030   66.0270   C 0  0  0  0  0  0  0  0  0  0  0  0
   71.8600   58.8480   64.6190   C 0  0  0  0  0  0  0  0  0  0  0  0
   71.4830   59.9840   63.8860   C 0  0  0  0  0  0  0  0  0  0  0  0
   71.1290   61.1580   64.5710   C 0  0  0  0  0  0  0  0  0  0  0  0
   71.1450   61.2060   65.9630   C 0  0  0  0  0  0  0  0  0  0  0  0
   71.5300   60.0770   66.6940   C 0  0  0  0  0  0  0  0  0  0  0  0
   70.7690   62.3630   66.6010   O 0  0  0  0  0  0  0  0  0  0  0  0
   73.9890   56.4700   67.9900   N 0  0  0  0  0  0  0  0  0  0  0  0
 16 15  1  0  0  0  0
 16 17  1  0  0  0  0
 15 13  1  0  0  0  0
 17 18  2  0  0  0  0
 26 24  1  0  0  0  0
 18 19  1  0  0  0  0
 19  5  2  0  0  0  0
 13 12  1  0  0  0  0
 24  4  1  0  0  0  0
  5  4  1  0  0  0  0
 14 12  2  0  0  0  0
 12 11  1  0  0  0  0
  4  3  1  0  0  0  0
 41 42  2  0  0  0  0
 41 40  1  0  0  0  0
 11  6  1  0  0  0  0
 11 10  1  0  0  0  0
 42 43  1  0  0  0  0
 40 39  2  0  0  0  0
  3 23  1  0  0  0  0
  3  2  1  0  0  0  0
  6  7  1  0  0  0  0
 27 25  1  0  0  0  0
 10  9  1  0  0  0  0
  2 25  1  0  0  0  0
  2  1  1  0  0  0  0
 43 45  1  0  0  0  0
 43 44  2  0  0  0  0
 39 44  1  0  0  0  0
 39 38  1  0  0  0  0
  7  8  1  0  0  0  0
  9  8  1  0  0  0  0
  9 35  1  0  0  0  0
 38 36  1  0  0  0  0
  1 22  1  0  0  0  0
  1 20  1  0  0  0  0
 31 30  2  0  0  0  0
 36 35  1  0  0  0  0
 36 46  1  0  0  0  0
 35 37  2  0  0  0  0
 30 46  1  0  0  0  0
 30 29  1  0  0  0  0
 20 28  1  0  0  0  0
 20 21  2  0  0  0  0
 28 29  1  0  0  0  0
 29 32  1  0  0  0  0
 32 33  1  0  0  0  0
 32 34  1  0  0  0  0
M  END
>  <InstanceId>
5T9U_7HG_A_300

>  <ChemCompId>
7HG

>  <PdbId>
5T9U

>  <ChainId>
A

>  <ResidueNumber>
300

>  <InsertionCode>


>  <Model>
1

>  <AltIds>


>  <MissingHeavyAtoms>
0

>  <ObservedFormula>
C34 N4 O8

>  <Name>
3-[(3-hydroxyphenyl)methyl]-10,12-dimethoxy-9,11-dimethyl-6-(propan-2-yl)-19-oxa-1,4,7,25-tetraazabicyclo[19.3.1]pentacosa-13,15-diene-2,5,8,20-tetrone

>  <SystematicName>
(3S,6S,9R,10R,11S,12S,13E,15E,21S)-3-[(3-hydroxyphenyl)methyl]-10,12-dimethoxy-9,11-dimethyl-6-propan-2-yl-19-oxa-1,4,7,25-tetrazabicyclo[19.3.1]pentacosa-13,15-diene-2,5,8,20-tetrone

>  <Synonyms>


>  <Type>
peptide-like

>  <Formula>
C34 H50 N4 O8

>  <MolecularWeight>
642.783

>  <ModifiedDate>
2017-01-20

>  <Parent>


>  <OneLetterCode>


>  <SubcomponentList>
78F VAL MTY

>  <AmbiguousFlag>
N

>  <InChI>
InChI=1S/C34H50N4O8/c1-21(2)29-32(41)35-27(20-24-13-11-14-25(39)19-24)33(42)38-17-12-15-26(37-38)34(43)46-18-10-8-7-9-16-28(44-5)22(3)30(45-6)23(4)31(40)36-29/h7-9,11,13-14,16,19,21-23,26-30,37,39H,10,12,15,17-18,20H2,1-6H3,(H,35,41)(H,36,40)/b8-7+,16-9+/t22-,23+,26-,27-,28-,29-,30+/m0/s1

>  <InChIKey>
NEMOPOKMUVPNPN-JJMZVKDLSA-N

>  <SMILES>
C[C@H]1[C@H](/C=C/C=C/CCOC(=O)[C@@H]2CCCN(N2)C(=O)[C@@H](NC(=O)[C@@H](NC(=O)[C@@H]([C@@H]1OC)C)C(C)C)Cc3cccc(c3)O)OC

$$$$
