2E7F_C2F_A_3000
  RCSB PDB08012016533D
Coordinates from PDB:2E7F:A:3000 Model:1 without hydrogens
 33 35  0  0  0  0            999 V2000
   -9.2390   76.0830  120.9340   N 0  0  0  0  0  0  0  0  0  0  0  0
   -8.5490   77.1760  120.4910   C 0  0  0  0  0  0  0  0  0  0  0  0
   -8.1260   78.0900  121.4060   N 0  0  0  0  0  0  0  0  0  0  0  0
   -8.2750   77.3670  119.1570   N 0  0  0  0  0  0  0  0  0  0  0  0
   -8.6680   76.4920  118.1870   C 0  0  0  0  0  0  0  0  0  0  0  0
   -8.3990   76.7000  116.9870   O 0  0  0  0  0  0  0  0  0  0  0  0
   -9.4300   75.2700  118.5890   C 0  0  0  0  0  0  0  0  0  0  0  0
   -9.8870   74.2820  117.6300   N 0  0  0  0  0  0  0  0  0  0  0  0
  -10.0830   72.9240  118.2550   C 0  0  0  0  0  0  0  0  0  0  0  0
  -10.8610   72.9860  119.6220   C 0  0  0  0  0  0  0  0  0  0  0  0
  -10.3720   74.0370  120.5250   N 0  0  0  0  0  0  0  0  0  0  0  0
   -9.6920   75.1260  120.0740   C 0  0  0  0  0  0  0  0  0  0  0  0
   -8.6910   72.2590  118.4560   C 0  0  0  0  0  0  0  0  0  0  0  0
   -8.7580   70.8160  118.6180   N 0  0  0  0  0  0  0  0  0  0  0  0
  -11.1390   74.7520  116.9870   C 0  0  0  0  0  0  0  0  0  0  0  0
   -9.3850   68.0290  115.5380   C 0  0  0  0  0  0  0  0  0  0  0  0
   -9.4980   67.6520  116.9090   C 0  0  0  0  0  0  0  0  0  0  0  0
   -9.2840   68.6030  117.9280   C 0  0  0  0  0  0  0  0  0  0  0  0
   -8.9540   69.9380  117.5900   C 0  0  0  0  0  0  0  0  0  0  0  0
   -8.8410   70.3160  116.2020   C 0  0  0  0  0  0  0  0  0  0  0  0
   -9.0560   69.3670  115.1870   C 0  0  0  0  0  0  0  0  0  0  0  0
   -9.6120   67.0040  114.4710   C 0  0  0  0  0  0  0  0  0  0  0  0
   -8.8880   67.0040  113.4870   O 0  0  0  0  0  0  0  0  0  0  0  0
  -10.6150   66.1270  114.6670   N 0  0  0  0  0  0  0  0  0  0  0  0
  -11.0620   65.0270  113.8090   C 0  0  0  0  0  0  0  0  0  0  0  0
  -12.3250   64.4300  114.4480   C 0  0  0  0  0  0  0  0  0  0  0  0
  -12.1610   62.9080  114.5010   C 0  0  0  0  0  0  0  0  0  0  0  0
  -13.4590   62.1950  114.8830   C 0  0  0  0  0  0  0  0  0  0  0  0
  -14.4520   62.9510  115.0830   O 0  0  0  0  0  0  0  0  0  0  0  0
  -13.5290   60.9460  115.0040   O 0  0  0  0  0  0  0  0  0  0  0  0
  -11.4000   65.5520  112.4310   C 0  0  0  0  0  0  0  0  0  0  0  0
  -12.0430   66.6180  112.3250   O 0  0  0  0  0  0  0  0  0  0  0  0
  -11.0190   64.9100  111.4380   O 0  0  0  0  0  0  0  0  0  0  0  0
  1  2  2  0  0  0  0
  1 12  1  0  0  0  0
  2  3  1  0  0  0  0
  2  4  1  0  0  0  0
  4  5  1  0  0  0  0
  5  6  2  0  0  0  0
  5  7  1  0  0  0  0
  7  8  1  0  0  0  0
  7 12  2  0  0  0  0
  8  9  1  0  0  0  0
  8 15  1  0  0  0  0
  9 10  1  0  0  0  0
  9 13  1  0  0  0  0
 10 11  1  0  0  0  0
 11 12  1  0  0  0  0
 13 14  1  0  0  0  0
 14 19  1  0  0  0  0
 16 17  2  0  0  0  0
 16 21  1  0  0  0  0
 16 22  1  0  0  0  0
 17 18  1  0  0  0  0
 18 19  2  0  0  0  0
 19 20  1  0  0  0  0
 20 21  2  0  0  0  0
 22 23  2  0  0  0  0
 22 24  1  0  0  0  0
 24 25  1  0  0  0  0
 25 26  1  0  0  0  0
 25 31  1  0  0  0  0
 26 27  1  0  0  0  0
 27 28  1  0  0  0  0
 28 29  2  0  0  0  0
 28 30  1  0  0  0  0
 31 32  2  0  0  0  0
 31 33  1  0  0  0  0
M  END
>  <InstanceId>
2E7F_C2F_A_3000

>  <ChemCompId>
C2F

>  <PdbId>
2E7F

>  <ChainId>
A

>  <ResidueNumber>
3000

>  <InsertionCode>


>  <Model>
1

>  <AltIds>


>  <MissingHeavyAtoms>
0

>  <ObservedFormula>
C20 N7 O6

>  <Name>
5-METHYL-5,6,7,8-TETRAHYDROFOLIC ACID

>  <SystematicName>
(2S)-2-[[4-[[(5R,6S)-2-amino-5-methyl-4-oxo-3,6,7,8-tetrahydropteridin-6-yl]methylamino]phenyl]carbonylamino]pentanedioic acid

>  <Synonyms>


>  <Type>
NON-POLYMER

>  <Formula>
C20 H25 N7 O6

>  <MolecularWeight>
459.456

>  <ModifiedDate>
2011-06-04

>  <Parent>


>  <OneLetterCode>


>  <SubcomponentList>


>  <AmbiguousFlag>
N

>  <InChI>
InChI=1S/C20H25N7O6/c1-27-12(9-23-16-15(27)18(31)26-20(21)25-16)8-22-11-4-2-10(3-5-11)17(30)24-13(19(32)33)6-7-14(28)29/h2-5,12-13,22H,6-9H2,1H3,(H,24,30)(H,28,29)(H,32,33)(H4,21,23,25,26,31)/t12-,13-/m0/s1

>  <InChIKey>
ZNOVTXRBGFNYRX-STQMWFEESA-N

>  <SMILES>
C[N@@]1[C@H](CNC2=C1C(=O)NC(=N2)N)CNc3ccc(cc3)C(=O)N[C@@H](CCC(=O)O)C(=O)O

$$$$
