3V5T_UW9_A_700
  RCSB PDB08012020463D
Coordinates from PDB:3V5T:A:700 Model:1 without hydrogens
 31 34  0  0  0  0            999 V2000
   21.1110   16.9650   61.2170   C 0  0  0  0  0  0  0  0  0  0  0  0
   19.7030   16.7740   60.6300   C 0  0  0  0  0  0  0  0  0  0  0  0
   19.5110   15.3400   60.1290   C 0  0  0  0  0  0  0  0  0  0  0  0
   18.5750   17.1380   61.6100   C 0  0  0  0  0  0  0  0  0  0  0  0
   18.4600   18.6100   61.7950   N 0  0  0  0  0  0  0  0  0  0  0  0
   19.4370   19.1390   62.7620   C 0  0  0  0  0  0  0  0  0  0  0  0
   17.1090   18.9440   62.2650   C 0  0  0  0  0  0  0  0  0  0  0  0
   18.7040   16.3580   62.9470   C 0  0  0  0  0  0  0  0  0  0  0  0
   17.5540   15.4570   63.1680   N 0  0  0  0  0  0  0  0  0  0  0  0
   16.3970   15.8350   63.4000   N 0  0  0  0  0  0  0  0  0  0  0  0
   17.6530   14.1390   63.1270   C 0  0  0  0  0  0  0  0  0  0  0  0
   18.6930   13.3180   62.9030   N 0  0  0  0  0  0  0  0  0  0  0  0
   18.5000   12.0150   62.9430   C 0  0  0  0  0  0  0  0  0  0  0  0
   17.2910   11.4890   63.1740   N 0  0  0  0  0  0  0  0  0  0  0  0
   16.2160   12.2580   63.3980   C 0  0  0  0  0  0  0  0  0  0  0  0
   15.0510   11.6610   63.6280   N 0  0  0  0  0  0  0  0  0  0  0  0
   16.3750   13.6470   63.3830   C 0  0  0  0  0  0  0  0  0  0  0  0
   15.5880   14.7960   63.5590   C 0  0  0  0  0  0  0  0  0  0  0  0
   14.2300   14.8410   63.8520   C 0  0  0  0  0  0  0  0  0  0  0  0
   13.7110   14.1780   64.9640   C 0  0  0  0  0  0  0  0  0  0  0  0
   13.3690   15.5820   63.0640   C 0  0  0  0  0  0  0  0  0  0  0  0
   12.0040   15.6470   63.3520   C 0  0  0  0  0  0  0  0  0  0  0  0
   11.4870   14.9700   64.4390   C 0  0  0  0  0  0  0  0  0  0  0  0
   10.1440   15.0360   64.7140   C 0  0  0  0  0  0  0  0  0  0  0  0
   12.3500   14.2480   65.2680   C 0  0  0  0  0  0  0  0  0  0  0  0
   11.8380   13.5800   66.3640   C 0  0  0  0  0  0  0  0  0  0  0  0
   10.4870   13.6340   66.6380   C 0  0  0  0  0  0  0  0  0  0  0  0
    9.6260   14.3550   65.8130   C 0  0  0  0  0  0  0  0  0  0  0  0
    8.2770   14.3800   66.1000   O 0  0  0  0  0  0  0  0  0  0  0  0
    7.5090   15.0100   65.0530   C 0  0  0  0  0  0  0  0  0  0  0  0
    6.0440   14.5590   65.2760   C 0  0  0  0  0  0  0  0  0  0  0  0
  3  2  1  0  0  0  0
  2  1  1  0  0  0  0
  2  4  1  0  0  0  0
  4  5  1  0  0  0  0
  4  8  1  0  0  0  0
  5  7  1  0  0  0  0
  5  6  1  0  0  0  0
 12 13  2  0  0  0  0
 12 11  1  0  0  0  0
 13 14  1  0  0  0  0
  8  9  1  0  0  0  0
 21 22  2  0  0  0  0
 21 19  1  0  0  0  0
 11  9  1  0  0  0  0
 11 17  2  0  0  0  0
  9 10  1  0  0  0  0
 14 15  2  0  0  0  0
 22 23  1  0  0  0  0
 17 15  1  0  0  0  0
 17 18  1  0  0  0  0
 15 16  1  0  0  0  0
 10 18  2  0  0  0  0
 18 19  1  0  0  0  0
 19 20  2  0  0  0  0
 23 24  2  0  0  0  0
 23 25  1  0  0  0  0
 24 28  1  0  0  0  0
 20 25  1  0  0  0  0
 30 31  1  0  0  0  0
 30 29  1  0  0  0  0
 25 26  2  0  0  0  0
 28 29  1  0  0  0  0
 28 27  2  0  0  0  0
 26 27  1  0  0  0  0
M  END
>  <InstanceId>
3V5T_UW9_A_700

>  <ChemCompId>
UW9

>  <PdbId>
3V5T

>  <ChainId>
A

>  <ResidueNumber>
700

>  <InsertionCode>


>  <Model>
1

>  <AltIds>


>  <MissingHeavyAtoms>
0

>  <ObservedFormula>
C24 N6 O

>  <Name>
1-[(2S)-2-(dimethylamino)-3-methylbutyl]-3-(6-ethoxynaphthalen-2-yl)-1H-pyrazolo[3,4-d]pyrimidin-4-amine

>  <SystematicName>
1-[(2S)-2-(dimethylamino)-3-methyl-butyl]-3-(6-ethoxynaphthalen-2-yl)pyrazolo[3,4-d]pyrimidin-4-amine

>  <Synonyms>


>  <Type>
NON-POLYMER

>  <Formula>
C24 H30 N6 O

>  <MolecularWeight>
418.535

>  <ModifiedDate>
2012-03-09

>  <Parent>


>  <OneLetterCode>


>  <SubcomponentList>


>  <AmbiguousFlag>
N

>  <InChI>
InChI=1S/C24H30N6O/c1-6-31-19-10-9-16-11-18(8-7-17(16)12-19)22-21-23(25)26-14-27-24(21)30(28-22)13-20(15(2)3)29(4)5/h7-12,14-15,20H,6,13H2,1-5H3,(H2,25,26,27)/t20-/m1/s1

>  <InChIKey>
UPGKXNICLSVZDA-HXUWFJFHSA-N

>  <SMILES>
CCOc1ccc2cc(ccc2c1)c3c4c(ncnc4n(n3)C[C@H](C(C)C)N(C)C)N

$$$$
