4HA5_13W_A_502
  RCSB PDB08012021543D
Coordinates from PDB:4HA5:A:502 Model:1 without hydrogens
 23 25  0  0  0  0            999 V2000
   28.2760   11.2450   18.7210   C 0  0  0  0  0  0  0  0  0  0  0  0
   28.9760   10.8340   19.8800   C 0  0  0  0  0  0  0  0  0  0  0  0
   28.2450   10.4820   21.0380   C 0  0  0  0  0  0  0  0  0  0  0  0
   26.8360   10.5370   21.0440   C 0  0  0  0  0  0  0  0  0  0  0  0
   26.1050   10.9450   19.8880   C 0  0  0  0  0  0  0  0  0  0  0  0
   26.8550   11.3030   18.7230   C 0  0  0  0  0  0  0  0  0  0  0  0
   24.6270   11.0020   19.9160   C 0  0  0  0  0  0  0  0  0  0  0  0
   23.8510   10.4900   20.9840   C 0  0  0  0  0  0  0  0  0  0  0  0
   22.4810   10.6700   20.7760   C 0  0  0  0  0  0  0  0  0  0  0  0
   22.1930   11.4570   19.2990   S 0  0  0  0  0  0  0  0  0  0  0  0
   23.8290   11.5680   18.9100   C 0  0  0  0  0  0  0  0  0  0  0  0
   21.3360   10.2500   21.7050   C 0  0  0  0  0  0  0  0  0  0  0  0
   20.6470   11.5190   22.2640   C 0  0  0  0  0  0  0  0  0  0  0  0
   21.4570   12.1880   23.4050   C 0  0  0  0  0  0  0  0  0  0  0  0
   22.2710   11.3450   24.1740   N 0  0  0  0  0  0  0  0  0  0  0  0
   22.3270    9.9680   23.9950   C 0  0  0  0  0  0  0  0  0  0  0  0
   21.8610    9.4250   22.8210   N 0  0  0  0  0  0  0  0  0  0  0  0
   22.8240    9.1630   24.9390   N 0  0  0  0  0  0  0  0  0  0  0  0
   20.3330    9.3850   20.9160   C 0  0  0  0  0  0  0  0  0  0  0  0
   23.0960   12.0250   25.2200   C 0  0  0  0  0  0  0  0  0  0  0  0
   21.3720   13.4000   23.5900   O 0  0  0  0  0  0  0  0  0  0  0  0
   28.9270   10.0600   22.2340   C 0  0  0  0  0  0  0  0  0  0  0  0
   29.4470    9.7160   23.2110   N 0  0  0  0  0  0  0  0  0  0  0  0
  1  6  2  0  0  0  0
  1  2  1  0  0  0  0
  6  5  1  0  0  0  0
 11 10  1  0  0  0  0
 11  7  2  0  0  0  0
 10  9  1  0  0  0  0
  2  3  2  0  0  0  0
  5  7  1  0  0  0  0
  5  4  2  0  0  0  0
  7  8  1  0  0  0  0
  9  8  2  0  0  0  0
  9 12  1  0  0  0  0
 19 12  1  0  0  0  0
  3  4  1  0  0  0  0
  3 22  1  0  0  0  0
 12 13  1  0  0  0  0
 12 17  1  0  0  0  0
 22 23  3  0  0  0  0
 13 14  1  0  0  0  0
 17 16  1  0  0  0  0
 14 21  2  0  0  0  0
 14 15  1  0  0  0  0
 16 15  1  0  0  0  0
 16 18  2  0  0  0  0
 15 20  1  0  0  0  0
M  END
>  <InstanceId>
4HA5_13W_A_502

>  <ChemCompId>
13W

>  <PdbId>
4HA5

>  <ChainId>
A

>  <ResidueNumber>
502

>  <InsertionCode>


>  <Model>
1

>  <AltIds>


>  <MissingHeavyAtoms>
0

>  <ObservedFormula>
C17 N4 O S

>  <Name>
3-{5-[(2E,4S)-2-imino-1,4-dimethyl-6-oxohexahydropyrimidin-4-yl]thiophen-3-yl}benzonitrile

>  <SystematicName>
3-[5-[(4S)-2-azanylidene-1,4-dimethyl-6-oxidanylidene-1,3-diazinan-4-yl]thiophen-3-yl]benzenecarbonitrile

>  <Synonyms>


>  <Type>
NON-POLYMER

>  <Formula>
C17 H16 N4 O S

>  <MolecularWeight>
324.4

>  <ModifiedDate>
2012-10-12

>  <Parent>


>  <OneLetterCode>


>  <SubcomponentList>


>  <AmbiguousFlag>
N

>  <InChI>
InChI=1S/C17H16N4OS/c1-17(8-15(22)21(2)16(19)20-17)14-7-13(10-23-14)12-5-3-4-11(6-12)9-18/h3-7,10H,8H2,1-2H3,(H2,19,20)/t17-/m0/s1

>  <InChIKey>
MLNWGLXMDFUREO-KRWDZBQOSA-N

>  <SMILES>
[H]/N=C/1\N[C@](CC(=O)N1C)(C)c2cc(cs2)c3cccc(c3)C#N

$$$$
