1YEJ_PNF_L_551
  RCSB PDB08012016263D
Coordinates from PDB:1YEJ:L:551 Model:1 without hydrogens
 27 27  0  0  0  0            999 V2000
   11.7240   37.6520   61.5920   C 0  0  0  0  0  0  0  0  0  0  0  0
   11.5950   38.9440   61.0990   C 0  0  0  0  0  0  0  0  0  0  0  0
   10.3830   39.5810   61.2410   C 0  0  0  0  0  0  0  0  0  0  0  0
    9.3230   38.9240   61.8670   C 0  0  0  0  0  0  0  0  0  0  0  0
    9.4940   37.6010   62.3560   C 0  0  0  0  0  0  0  0  0  0  0  0
   10.7220   36.9360   62.2210   C 0  0  0  0  0  0  0  0  0  0  0  0
   14.2130   37.5270   62.3610   P 0  0  0  0  0  0  0  0  0  0  0  0
   12.9460   37.0450   61.4460   O 0  0  0  0  0  0  0  0  0  0  0  0
   14.4460   38.9260   62.1110   O 0  0  0  0  0  0  0  0  0  0  0  0
   13.9650   37.0920   63.7470   O 0  0  0  0  0  0  0  0  0  0  0  0
   15.5100   36.5790   61.7560   C 0  0  0  0  0  0  0  0  0  0  0  0
   16.0650   37.0440   60.4760   C 0  0  0  0  0  0  0  0  0  0  0  0
   17.2700   36.1540   60.2140   C 0  0  0  0  0  0  0  0  0  0  0  0
   17.6240   36.0770   58.7520   C 0  0  0  0  0  0  0  0  0  0  0  0
   17.3290   34.9030   58.0520   N 0  0  0  0  0  0  0  0  0  0  0  0
   18.1670   37.0950   58.2460   O 0  0  0  0  0  0  0  0  0  0  0  0
   17.5900   34.6900   56.7120   C 0  0  0  0  0  0  0  0  0  0  0  0
   16.5890   33.7390   56.0350   C 0  0  0  0  0  0  0  0  0  0  0  0
   17.2310   32.9210   54.8670   C 0  0  0  0  0  0  0  0  0  0  0  0
   17.0470   31.3850   54.9810   C 0  0  0  0  0  0  0  0  0  0  0  0
   16.7600   30.6380   53.6670   C 0  0  0  0  0  0  0  0  0  0  0  0
   15.7740   29.4520   53.7680   C 0  0  0  0  0  0  0  0  0  0  0  0
   15.6460   28.8790   54.7890   O 0  0  0  0  0  0  0  0  0  0  0  0
   15.0990   29.0450   52.8370   O 0  0  0  0  0  0  0  0  0  0  0  0
    8.0130   39.6060   62.0260   N 0  3  0  0  0  0  0  0  0  0  0  0
    7.8500   40.7940   61.7110   O 0  0  0  0  0  0  0  0  0  0  0  0
    7.0620   38.9830   62.4940   O 0  5  0  0  0  0  0  0  0  0  0  0
  1  2  2  0  0  0  0
  1  6  1  0  0  0  0
  1  8  1  0  0  0  0
  2  3  1  0  0  0  0
  3  4  2  0  0  0  0
  4  5  1  0  0  0  0
  4 25  1  0  0  0  0
  5  6  2  0  0  0  0
  7  8  1  0  0  0  0
  7  9  1  0  0  0  0
  7 10  2  0  0  0  0
  7 11  1  0  0  0  0
 11 12  1  0  0  0  0
 12 13  1  0  0  0  0
 13 14  1  0  0  0  0
 14 15  1  0  0  0  0
 14 16  2  0  0  0  0
 15 17  1  0  0  0  0
 17 18  1  0  0  0  0
 18 19  1  0  0  0  0
 19 20  1  0  0  0  0
 20 21  1  0  0  0  0
 21 22  1  0  0  0  0
 22 23  2  0  0  0  0
 22 24  1  0  0  0  0
 25 26  2  0  0  0  0
 25 27  1  0  0  0  0
M  CHG  2  25   1  27  -1
M  END
>  <InstanceId>
1YEJ_PNF_L_551

>  <ChemCompId>
PNF

>  <PdbId>
1YEJ

>  <ChainId>
L

>  <ResidueNumber>
551

>  <InsertionCode>


>  <Model>
1

>  <AltIds>


>  <MissingHeavyAtoms>
0

>  <ObservedFormula>
C16 N2 O8 P

>  <Name>
6-{4-[HYDROXY-(4-NITRO-PHENOXY)-PHOSPHORYL]-BUTYRYLAMINO}-HEXANOIC ACID

>  <SystematicName>
6-[4-[hydroxy-(4-nitrophenoxy)phosphoryl]butanoylamino]hexanoic acid

>  <Synonyms>


>  <Type>
NON-POLYMER

>  <Formula>
C16 H23 N2 O8 P

>  <MolecularWeight>
402.336

>  <ModifiedDate>
2011-06-04

>  <Parent>


>  <OneLetterCode>


>  <SubcomponentList>


>  <AmbiguousFlag>
N

>  <InChI>
InChI=1S/C16H23N2O8P/c19-15(17-11-3-1-2-6-16(20)21)5-4-12-27(24,25)26-14-9-7-13(8-10-14)18(22)23/h7-10H,1-6,11-12H2,(H,17,19)(H,20,21)(H,24,25)

>  <InChIKey>
WYHHVZLGTMCKOR-UHFFFAOYSA-N

>  <SMILES>
c1cc(ccc1[N+](=O)[O-])O[P@@](=O)(CCCC(=O)NCCCCCC(=O)O)O

$$$$
