3T64_DU3_A_201
  RCSB PDB08012020323D
Coordinates from PDB:3T64:A:201 Model:1 without hydrogens
 29 32  0  0  0  0            999 V2000
   -5.9640   25.7710   -0.8820   N 0  0  0  0  0  0  0  0  0  0  0  0
   -5.4540   24.6600   -1.5370   C 0  0  0  0  0  0  0  0  0  0  0  0
   -6.1020   23.6150   -1.6120   O 0  0  0  0  0  0  0  0  0  0  0  0
   -4.1800   24.7290   -2.1160   N 0  0  0  0  0  0  0  0  0  0  0  0
   -3.4520   25.9080   -2.0460   C 0  0  0  0  0  0  0  0  0  0  0  0
   -2.3450   25.9210   -2.5750   O 0  0  0  0  0  0  0  0  0  0  0  0
   -3.9510   27.0320   -1.3800   C 0  0  0  0  0  0  0  0  0  0  0  0
   -5.2280   26.9610   -0.7950   C 0  0  0  0  0  0  0  0  0  0  0  0
   -7.3370   25.6430   -0.3210   C 0  0  0  0  0  0  0  0  0  0  0  0
   -8.9150   27.3350   -5.2680   C 0  0  0  0  0  0  0  0  0  0  0  0
   -9.4370   26.5790   -6.5100   C 0  0  0  0  0  0  0  0  0  0  0  0
   -9.4420   27.2280   -7.7440   C 0  0  0  0  0  0  0  0  0  0  0  0
   -7.7150   26.8020    0.5760   C 0  0  0  0  0  0  0  0  0  0  0  0
   -9.8990   26.5880   -8.8910   C 0  0  0  0  0  0  0  0  0  0  0  0
  -10.3380   25.2760   -8.8070   C 0  0  0  0  0  0  0  0  0  0  0  0
  -10.3250   24.6220   -7.5830   C 0  0  0  0  0  0  0  0  0  0  0  0
   -9.8740   25.2660   -6.4370   C 0  0  0  0  0  0  0  0  0  0  0  0
   -7.4060   27.1260   -5.2960   C 0  0  0  0  0  0  0  0  0  0  0  0
   -6.5960   28.1430   -5.8020   C 0  0  0  0  0  0  0  0  0  0  0  0
   -5.2150   27.9510   -5.8340   C 0  0  0  0  0  0  0  0  0  0  0  0
   -4.6520   26.7590   -5.3860   C 0  0  0  0  0  0  0  0  0  0  0  0
   -5.4650   25.7480   -4.9060   C 0  0  0  0  0  0  0  0  0  0  0  0
   -6.8420   25.9210   -4.8550   C 0  0  0  0  0  0  0  0  0  0  0  0
   -8.4930   27.7450   -0.3210   C 0  0  0  0  0  0  0  0  0  0  0  0
   -9.5870   28.2850    0.4360   O 0  0  0  0  0  0  0  0  0  0  0  0
   -9.0440   26.9030   -1.4640   C 0  0  0  0  0  0  0  0  0  0  0  0
   -8.1510   25.7350   -1.5210   O 0  0  0  0  0  0  0  0  0  0  0  0
   -9.1460   27.7540   -2.8030   C 0  0  0  0  0  0  0  0  0  0  0  0
   -9.5240   26.8980   -3.9780   N 0  0  0  0  0  0  0  0  0  0  0  0
  2  1  1  0  0  0  0
  8  1  1  0  0  0  0
  1  9  1  0  0  0  0
  4  2  1  0  0  0  0
  3  2  2  0  0  0  0
  5  4  1  0  0  0  0
  6  5  2  0  0  0  0
  5  7  1  0  0  0  0
  7  8  2  0  0  0  0
 27  9  1  0  0  0  0
  9 13  1  0  0  0  0
 11 10  1  0  0  0  0
 18 10  1  0  0  0  0
 10 29  1  0  0  0  0
 12 11  2  0  0  0  0
 17 11  1  0  0  0  0
 14 12  1  0  0  0  0
 24 13  1  0  0  0  0
 15 14  2  0  0  0  0
 15 16  1  0  0  0  0
 16 17  2  0  0  0  0
 19 18  2  0  0  0  0
 18 23  1  0  0  0  0
 20 19  1  0  0  0  0
 20 21  2  0  0  0  0
 21 22  1  0  0  0  0
 22 23  2  0  0  0  0
 26 24  1  0  0  0  0
 24 25  1  0  0  0  0
 28 26  1  0  0  0  0
 27 26  1  0  0  0  0
 29 28  1  0  0  0  0
M  END
>  <InstanceId>
3T64_DU3_A_201

>  <ChemCompId>
DU3

>  <PdbId>
3T64

>  <ChainId>
A

>  <ResidueNumber>
201

>  <InsertionCode>


>  <Model>
1

>  <AltIds>


>  <MissingHeavyAtoms>
0

>  <ObservedFormula>
C22 N3 O4

>  <Name>
2',5'-dideoxy-5'-[(diphenylmethyl)amino]uridine

>  <SystematicName>
1-[(2R,4S,5R)-5-[[(diphenylmethyl)amino]methyl]-4-oxidanyl-oxolan-2-yl]pyrimidine-2,4-dione

>  <Synonyms>


>  <Type>
NON-POLYMER

>  <Formula>
C22 H23 N3 O4

>  <MolecularWeight>
393.436

>  <ModifiedDate>
2012-08-24

>  <Parent>


>  <OneLetterCode>


>  <SubcomponentList>


>  <AmbiguousFlag>
N

>  <InChI>
InChI=1S/C22H23N3O4/c26-17-13-20(25-12-11-19(27)24-22(25)28)29-18(17)14-23-21(15-7-3-1-4-8-15)16-9-5-2-6-10-16/h1-12,17-18,20-21,23,26H,13-14H2,(H,24,27,28)/t17-,18+,20+/m0/s1

>  <InChIKey>
JJVBLAPDVHVENR-NLWGTHIKSA-N

>  <SMILES>
c1ccc(cc1)C(c2ccccc2)NC[C@@H]3[C@H](C[C@@H](O3)N4C=CC(=O)NC4=O)O

$$$$
