3K97_4CD_A_901
  RCSB PDB08012019343D
Coordinates from PDB:3K97:A:901 Model:1 without hydrogens
 23 25  0  0  0  0            999 V2000
   67.4650   78.9670   22.8120   N 0  0  0  0  0  0  0  0  0  0  0  0
   67.9820   79.8930   23.8650   C 0  0  0  0  0  0  0  0  0  0  0  0
   69.4610   79.6540   24.3000   C 0  0  0  0  0  0  0  0  0  0  0  0
   70.4200   79.0410   23.4040   C 0  0  0  0  0  0  0  0  0  0  0  0
   71.7620   78.8180   23.7990   C 0  0  0  0  0  0  0  0  0  0  0  0
   72.1930   79.1950   25.0890   C 0  0  0  0  0  0  0  0  0  0  0  0
   69.9230   80.0350   25.6240   C 0  0  0  0  0  0  0  0  0  0  0  0
   68.3240   76.4470   24.7470   C 0  0  0  0  0  0  0  0  0  0  0  0
   67.1970   75.5530   26.7450   C 0  0  0  0  0  0  0  0  0  0  0  0
   65.8860   76.6740   24.9940   C 0  0  0  0  0  0  0  0  0  0  0  0
   67.8230   81.2830   23.2210   C 0  0  0  0  0  0  0  0  0  0  0  0
   67.9440   81.0460   21.7170   C 0  0  0  0  0  0  0  0  0  0  0  0
   67.3770   79.6480   21.5120   C 0  0  0  0  0  0  0  0  0  0  0  0
   71.2850   79.7960   25.9920   C 0  0  0  0  0  0  0  0  0  0  0  0
   69.0280   80.6810   26.6570   C 0  0  0  0  0  0  0  0  0  0  0  0
   67.0680   76.9080   24.2400   C 0  0  0  0  0  0  0  0  0  0  0  0
   68.3880   75.7710   25.9980   C 0  0  0  0  0  0  0  0  0  0  0  0
   65.9470   76.0010   26.2440   C 0  0  0  0  0  0  0  0  0  0  0  0
   64.6610   77.0720   24.5790   O 0  0  0  0  0  0  0  0  0  0  0  0
   67.2480   74.9130   27.9510   O 0  0  0  0  0  0  0  0  0  0  0  0
   67.0050   77.6310   22.9250   C 0  0  0  0  0  0  0  0  0  0  0  0
   66.5210   77.0000   21.9840   O 0  0  0  0  0  0  0  0  0  0  0  0
   69.9240   75.2350   26.5690  Cl 0  0  0  0  0  0  0  0  0  0  0  0
  1  2  1  0  0  0  0
  1 13  1  0  0  0  0
  1 21  1  0  0  0  0
  2  3  1  0  0  0  0
  2 11  1  0  0  0  0
  3  4  2  0  0  0  0
  3  7  1  0  0  0  0
  4  5  1  0  0  0  0
  5  6  2  0  0  0  0
  6 14  1  0  0  0  0
  7 14  2  0  0  0  0
  7 15  1  0  0  0  0
  8 16  2  0  0  0  0
  8 17  1  0  0  0  0
  9 17  2  0  0  0  0
  9 18  1  0  0  0  0
  9 20  1  0  0  0  0
 10 16  1  0  0  0  0
 10 18  2  0  0  0  0
 10 19  1  0  0  0  0
 11 12  1  0  0  0  0
 12 13  1  0  0  0  0
 16 21  1  0  0  0  0
 17 23  1  0  0  0  0
 21 22  2  0  0  0  0
M  END
>  <InstanceId>
3K97_4CD_A_901

>  <ChemCompId>
4CD

>  <PdbId>
3K97

>  <ChainId>
A

>  <ResidueNumber>
901

>  <InsertionCode>


>  <Model>
1

>  <AltIds>


>  <MissingHeavyAtoms>
0

>  <ObservedFormula>
C18 N O3 Cl

>  <Name>
4-chloro-6-{[(2R)-2-(2-methylphenyl)pyrrolidin-1-yl]carbonyl}benzene-1,3-diol

>  <SystematicName>
(5-chloro-2,4-dihydroxy-phenyl)-[(2R)-2-(2-methylphenyl)pyrrolidin-1-yl]methanone

>  <Synonyms>


>  <Type>
NON-POLYMER

>  <Formula>
C18 H18 Cl N O3

>  <MolecularWeight>
331.793

>  <ModifiedDate>
2011-06-04

>  <Parent>


>  <OneLetterCode>


>  <SubcomponentList>


>  <AmbiguousFlag>
N

>  <InChI>
InChI=1S/C18H18ClNO3/c1-11-5-2-3-6-12(11)15-7-4-8-20(15)18(23)13-9-14(19)17(22)10-16(13)21/h2-3,5-6,9-10,15,21-22H,4,7-8H2,1H3/t15-/m1/s1

>  <InChIKey>
SOMWPEIBCBZHBS-OAHLLOKOSA-N

>  <SMILES>
Cc1ccccc1[C@H]2CCCN2C(=O)c3cc(c(cc3O)O)Cl

$$$$
