5MWY_YNU_A_1101
  RCSB PDB08022002263D
Coordinates from PDB:5MWY:A:1101 Model:1 without hydrogens
 30 35  0  0  0  0            999 V2000
    8.1500   17.6680   16.7500   C 0  0  0  0  0  0  0  0  0  0  0  0
    8.5880   19.0570   17.1960   C 0  0  0  0  0  0  0  0  0  0  0  0
    7.4860   16.0690   14.9230   C 0  0  0  0  0  0  0  0  0  0  0  0
    8.6490   16.9210   19.1290   C 0  0  0  0  0  0  0  0  0  0  0  0
    8.4430   15.1710   17.1200   C 0  0  0  0  0  0  0  0  0  0  0  0
    9.0360   18.3520   21.0400   C 0  0  0  0  0  0  0  0  0  0  0  0
    8.9920   19.3700   18.6490   C 0  0  0  0  0  0  0  0  0  0  0  0
    7.5640   14.8550   15.8660   C 0  0  0  0  0  0  0  0  0  0  0  0
    7.7500   15.8870   13.6180   C 0  0  0  0  0  0  0  0  0  0  0  0
    9.9330   15.0910   16.7840   C 0  0  0  0  0  0  0  0  0  0  0  0
    8.9330   20.2830   22.3250   C 0  0  0  0  0  0  0  0  0  0  0  0
    9.0650   16.8900   21.4950   C 0  0  0  0  0  0  0  0  0  0  0  0
    7.7220   17.0110   12.6510   C 0  0  0  0  0  0  0  0  0  0  0  0
   10.4760   18.9030   21.1290   C 0  0  0  0  0  0  0  0  0  0  0  0
    6.8590   18.7250   19.7650   C 0  0  0  0  0  0  0  0  0  0  0  0
   10.8910   14.9000   17.7130   O 0  0  0  0  0  0  0  0  0  0  0  0
   11.9960   13.9800   17.4230   C 0  0  0  0  0  0  0  0  0  0  0  0
    9.4960   18.1630   16.5420   O 0  0  0  0  0  0  0  0  0  0  0  0
    8.0250   16.5210   17.7760   C 0  0  0  0  0  0  0  0  0  0  0  0
    7.3020   17.4760   15.4690   C 0  0  0  0  0  0  0  0  0  0  0  0
    8.3680   18.3980   19.6400   C 0  0  0  0  0  0  0  0  0  0  0  0
    8.3240   19.1260   22.0210   O 0  0  0  0  0  0  0  0  0  0  0  0
    8.4300   16.0510   20.3760   C 0  0  0  0  0  0  0  0  0  0  0  0
    7.7900   18.5620   14.4920   C 0  0  0  0  0  0  0  0  0  0  0  0
   10.2940   15.1980   15.6480   O 0  0  0  0  0  0  0  0  0  0  0  0
    8.4390   21.2000   22.9150   O 0  0  0  0  0  0  0  0  0  0  0  0
    8.0290   16.9180   11.4920   O 0  0  0  0  0  0  0  0  0  0  0  0
   10.3440   20.2700   21.8460   C 0  0  0  0  0  0  0  0  0  0  0  0
    7.2650   18.3490   13.0950   C 0  0  0  0  0  0  0  0  0  0  0  0
    5.8040   17.6700   15.7770   C 0  0  0  0  0  0  0  0  0  0  0  0
 27 13  2  0  0  0  0
 13 29  1  0  0  0  0
 13  9  1  0  0  0  0
 29 24  1  0  0  0  0
  9  3  2  0  0  0  0
 24 20  1  0  0  0  0
  3 20  1  0  0  0  0
  3  8  1  0  0  0  0
 20 30  1  0  0  0  0
 20  1  1  0  0  0  0
 25 10  2  0  0  0  0
  8  5  1  0  0  0  0
 18  1  1  0  0  0  0
 18  2  1  0  0  0  0
  1  2  1  0  0  0  0
  1 19  1  0  0  0  0
 10  5  1  0  0  0  0
 10 16  1  0  0  0  0
  5 19  1  0  0  0  0
  2  7  1  0  0  0  0
 17 16  1  0  0  0  0
 19  4  1  0  0  0  0
  7 21  1  0  0  0  0
  4 21  1  0  0  0  0
  4 23  1  0  0  0  0
 21 15  1  0  0  0  0
 21  6  1  0  0  0  0
 23 12  1  0  0  0  0
  6 14  1  0  0  0  0
  6 12  1  0  0  0  0
  6 22  1  0  0  0  0
 14 28  1  0  0  0  0
 28 11  1  0  0  0  0
 22 11  1  0  0  0  0
 11 26  2  0  0  0  0
M  END
>  <InstanceId>
5MWY_YNU_A_1101

>  <ChemCompId>
YNU

>  <PdbId>
5MWY

>  <ChainId>
A

>  <ResidueNumber>
1101

>  <InsertionCode>


>  <Model>
1

>  <AltIds>


>  <MissingHeavyAtoms>
0

>  <ObservedFormula>
C24 O6

>  <Name>
eplerenone

>  <SystematicName>


>  <Synonyms>


>  <Type>
NON-POLYMER

>  <Formula>
C24 H30 O6

>  <MolecularWeight>
414.491

>  <ModifiedDate>
2018-03-02

>  <Parent>


>  <OneLetterCode>


>  <SubcomponentList>


>  <AmbiguousFlag>
N

>  <InChI>
InChI=1S/C24H30O6/c1-21-7-4-14(25)10-13(21)11-15(20(27)28-3)19-16-5-8-23(9-6-18(26)30-23)22(16,2)12-17-24(19,21)29-17/h10,15-17,19H,4-9,11-12H2,1-3H3/t15-,16+,17-,19+,21+,22+,23-,24-/m1/s1

>  <InChIKey>
JUKPWJGBANNWMW-VWBFHTRKSA-N

>  <SMILES>
C[C@]12CCC(=O)C=C1C[C@H]([C@@H]3[C@]24[C@H](O4)C[C@]5([C@H]3CC[C@@]56CCC(=O)O6)C)C(=O)OC

$$$$
