5FYX_FD6_A_1195
  RCSB PDB08022001273D
Coordinates from PDB:5FYX:A:1195 Model:1 without hydrogens
 25 28  0  0  0  0            999 V2000
   11.5350  -23.9120  -19.0870   S 0  0  0  0  0  0  0  0  0  0  0  0
   14.8940  -23.6380  -16.1060   C 0  0  0  0  0  0  0  0  0  0  0  0
   13.2340  -21.4120  -18.5510   N 0  0  0  0  0  0  0  0  0  0  0  0
   14.2030  -24.8140  -16.2610   C 0  0  0  0  0  0  0  0  0  0  0  0
   15.5290  -18.8250  -15.9640   N 0  0  0  0  0  0  0  0  0  0  0  0
   13.1780  -24.8740  -17.1800   C 0  0  0  0  0  0  0  0  0  0  0  0
   15.7800  -19.6170  -17.1600   N 0  0  0  0  0  0  0  0  0  0  0  0
   13.7820  -17.6130  -14.0660   N 0  0  0  0  0  0  0  0  0  0  0  0
   12.8630  -23.7610  -17.9580   C 0  0  0  0  0  0  0  0  0  0  0  0
   13.5530  -22.5550  -17.7810   C 0  0  0  0  0  0  0  0  0  0  0  0
   14.5840  -22.5130  -16.8410   C 0  0  0  0  0  0  0  0  0  0  0  0
   11.7890  -22.5540  -20.1620   C 0  0  0  0  0  0  0  0  0  0  0  0
   11.1280  -22.5660  -21.3870   C 0  0  0  0  0  0  0  0  0  0  0  0
   11.2820  -21.5130  -22.2640   C 0  0  0  0  0  0  0  0  0  0  0  0
   12.0650  -20.4410  -21.9240   C 0  0  0  0  0  0  0  0  0  0  0  0
   16.1870  -23.5600  -14.9430  Cl 0  0  0  0  0  0  0  0  0  0  0  0
   12.7040  -20.4000  -20.6970   C 0  0  0  0  0  0  0  0  0  0  0  0
   12.5750  -21.4560  -19.7950   C 0  0  0  0  0  0  0  0  0  0  0  0
   13.4280  -20.0760  -17.9360   C 0  0  0  0  0  0  0  0  0  0  0  0
   14.8020  -19.4390  -18.2180   C 0  0  0  0  0  0  0  0  0  0  0  0
   14.7970  -19.6220  -14.9750   C 0  0  0  0  0  0  0  0  0  0  0  0
   14.5420  -18.8110  -13.7460   C 0  0  0  0  0  0  0  0  0  0  0  0
   14.5340  -16.8090  -15.0220   C 0  0  0  0  0  0  0  0  0  0  0  0
   14.8070  -17.5950  -16.2870   C 0  0  0  0  0  0  0  0  0  0  0  0
   13.5100  -16.8480  -12.8550   C 0  0  0  0  0  0  0  0  0  0  0  0
 24 23  1  0  0  0  0
 24  5  1  0  0  0  0
 23  8  1  0  0  0  0
  8 25  1  0  0  0  0
  8 22  1  0  0  0  0
 22 21  1  0  0  0  0
 21  5  1  0  0  0  0
  5  7  1  0  0  0  0
  7 20  1  0  0  0  0
 20 19  1  0  0  0  0
 19  3  1  0  0  0  0
  3 10  1  0  0  0  0
  3 18  1  0  0  0  0
 10 11  1  0  0  0  0
 10  9  2  0  0  0  0
 11  2  2  0  0  0  0
  2 16  1  0  0  0  0
  2  4  1  0  0  0  0
  4  6  2  0  0  0  0
  6  9  1  0  0  0  0
  9  1  1  0  0  0  0
  1 12  1  0  0  0  0
 12 18  2  0  0  0  0
 12 13  1  0  0  0  0
 18 17  1  0  0  0  0
 17 15  2  0  0  0  0
 15 14  1  0  0  0  0
 14 13  2  0  0  0  0
M  END
>  <InstanceId>
5FYX_FD6_A_1195

>  <ChemCompId>
FD6

>  <PdbId>
5FYX

>  <ChainId>
A

>  <ResidueNumber>
1195

>  <InsertionCode>


>  <Model>
1

>  <AltIds>


>  <MissingHeavyAtoms>
0

>  <ObservedFormula>
C19 N4 S Cl

>  <Name>
N-[2-(2-chloranylphenothiazin-10-yl)ethyl]-4-methyl-piperazin-1-amine

>  <SystematicName>
N-[2-(2-chloranylphenothiazin-10-yl)ethyl]-4-methyl-piperazin-1-amine

>  <Synonyms>
FD16

>  <Type>
non-polymer

>  <Formula>
C19 H23 Cl N4 S

>  <MolecularWeight>
374.931

>  <ModifiedDate>
2017-01-20

>  <Parent>


>  <OneLetterCode>


>  <SubcomponentList>


>  <AmbiguousFlag>
N

>  <InChI>
InChI=1S/C19H23ClN4S/c1-22-10-12-23(13-11-22)21-8-9-24-16-4-2-3-5-18(16)25-19-7-6-15(20)14-17(19)24/h2-7,14,21H,8-13H2,1H3

>  <InChIKey>
FCJWPLVHJGKUHJ-UHFFFAOYSA-N

>  <SMILES>
CN1CCN(CC1)NCCN2c3ccccc3Sc4c2cc(cc4)Cl

$$$$
