5XO7_36J_A_301
  RCSB PDB08022003393D
Coordinates from PDB:5XO7:A:301 Model:1 without hydrogens
 23 24  0  0  0  0            999 V2000
   -7.7820   -3.4480   -5.1690   C 0  0  0  0  0  0  0  0  0  0  0  0
   -7.5890   -1.8180   -5.3410   C 0  0  0  0  0  0  0  0  0  0  0  0
   -8.9410   -1.1590   -5.8270   C 0  0  0  0  0  0  0  0  0  0  0  0
   -9.0900    0.3600   -5.6470   C 0  0  0  0  0  0  0  0  0  0  0  0
   -7.7770    1.1320   -5.8970   C 0  0  0  0  0  0  0  0  0  0  0  0
   -9.5300    0.6430   -4.1810   O 0  0  0  0  0  0  0  0  0  0  0  0
   -9.9160    1.8030   -3.6670   C 0  0  0  0  0  0  0  0  0  0  0  0
   -9.9900    2.8070   -4.3480   O 0  0  0  0  0  0  0  0  0  0  0  0
   -9.8020    1.8660   -2.2170   C 0  0  0  0  0  0  0  0  0  0  0  0
   -9.3860    3.0880   -1.6870   C 0  0  0  0  0  0  0  0  0  0  0  0
   -9.2310    4.1290   -2.5480   O 0  0  0  0  0  0  0  0  0  0  0  0
   -9.1930    3.3230   -0.2710   C 0  0  0  0  0  0  0  0  0  0  0  0
   -9.4340    2.2470    0.5830   C 0  0  0  0  0  0  0  0  0  0  0  0
   -9.2430    2.4030    1.9550   O 0  0  0  0  0  0  0  0  0  0  0  0
   -9.8860    1.0320    0.0470   C 0  0  0  0  0  0  0  0  0  0  0  0
  -10.0460    0.7860   -1.3180   C 0  0  0  0  0  0  0  0  0  0  0  0
  -10.5090   -0.5170   -1.7280   C 0  0  0  0  0  0  0  0  0  0  0  0
  -10.5260   -1.6980   -1.0040   C 0  0  0  0  0  0  0  0  0  0  0  0
  -11.0580   -2.9490   -1.4580   C 0  0  0  0  0  0  0  0  0  0  0  0
   -9.7820   -3.7460   -1.7600   C 0  0  0  0  0  0  0  0  0  0  0  0
   -9.5700   -3.4220   -3.2990   C 0  0  0  0  0  0  0  0  0  0  0  0
   -8.0860   -3.8670   -3.8140   C 0  0  0  0  0  0  0  0  0  0  0  0
   -8.1090   -5.3560   -3.9420   O 0  0  0  0  0  0  0  0  0  0  0  0
 14 13  1  0  0  0  0
 13 12  2  0  0  0  0
 13 15  1  0  0  0  0
 12 10  1  0  0  0  0
 15 16  2  0  0  0  0
 10 11  1  0  0  0  0
 10  9  2  0  0  0  0
 16  9  1  0  0  0  0
 16 17  1  0  0  0  0
  9  7  1  0  0  0  0
 17 18  2  0  0  0  0
 18 19  1  0  0  0  0
  7  8  2  0  0  0  0
  7  6  1  0  0  0  0
 19 20  1  0  0  0  0
  6  4  1  0  0  0  0
 20 21  1  0  0  0  0
  5  4  1  0  0  0  0
  4  3  1  0  0  0  0
 21 22  1  0  0  0  0
  3  2  1  0  0  0  0
 22 23  1  0  0  0  0
 22  1  1  0  0  0  0
  2  1  1  0  0  0  0
M  END
>  <InstanceId>
5XO7_36J_A_301

>  <ChemCompId>
36J

>  <PdbId>
5XO7

>  <ChainId>
A

>  <ResidueNumber>
301

>  <InsertionCode>


>  <Model>
1

>  <AltIds>


>  <MissingHeavyAtoms>
0

>  <ObservedFormula>
C18 O5

>  <Name>
(3S,7R,11E)-7,14,16-trihydroxy-3-methyl-3,4,5,6,7,8,9,10-octahydro-1H-2-benzoxacyclotetradecin-1-one

>  <SystematicName>
(2E,7R,11S)-11-methyl-7,15,17-tris(oxidanyl)-12-oxabicyclo[12.4.0]octadeca-1(18),2,14,16-tetraen-13-one

>  <Synonyms>


>  <Type>
NON-POLYMER

>  <Formula>
C18 H24 O5

>  <MolecularWeight>
320.38

>  <ModifiedDate>
2015-01-23

>  <Parent>


>  <OneLetterCode>


>  <SubcomponentList>


>  <AmbiguousFlag>
N

>  <InChI>
InChI=1S/C18H24O5/c1-12-6-5-9-14(19)8-4-2-3-7-13-10-15(20)11-16(21)17(13)18(22)23-12/h3,7,10-12,14,19-21H,2,4-6,8-9H2,1H3/b7-3+/t12-,14+/m0/s1

>  <InChIKey>
FPQFYIAXQDXNOR-QDKLYSGJSA-N

>  <SMILES>
C[C@H]1CCC[C@@H](CCC/C=C/c2cc(cc(c2C(=O)O1)O)O)O

$$$$
