1V2L_BEN_T_1
  RCSB PDB08012016083D
Coordinates from PDB:1V2L:T:1 Model:1 without hydrogens
  9  9  0  0  0  0            999 V2000
   53.2200   67.2620  -28.8870   C 0  0  0  0  0  0  0  0  0  0  0  0
   52.6250   66.8840  -30.1740   C 0  0  0  0  0  0  0  0  0  0  0  0
   52.3630   67.8910  -31.1900   C 0  0  0  0  0  0  0  0  0  0  0  0
   52.6930   69.2850  -30.9340   C 0  0  0  0  0  0  0  0  0  0  0  0
   53.2790   69.6720  -29.6700   C 0  0  0  0  0  0  0  0  0  0  0  0
   53.5430   68.6670  -28.6480   C 0  0  0  0  0  0  0  0  0  0  0  0
   53.5010   66.2000  -27.8130   C 0  0  0  0  0  0  0  0  0  0  0  0
   54.2640   66.5030  -26.7770   N 0  0  0  0  0  0  0  0  0  0  0  0
   52.9870   64.9940  -27.9420   N 0  0  0  0  0  0  0  0  0  0  0  0
  1  2  2  0  0  0  0
  1  6  1  0  0  0  0
  1  7  1  0  0  0  0
  2  3  1  0  0  0  0
  3  4  2  0  0  0  0
  4  5  1  0  0  0  0
  5  6  2  0  0  0  0
  7  8  2  0  0  0  0
  7  9  1  0  0  0  0
M  END
>  <InstanceId>
1V2L_BEN_T_1

>  <ChemCompId>
BEN

>  <PdbId>
1V2L

>  <ChainId>
T

>  <ResidueNumber>
1

>  <InsertionCode>


>  <Model>
1

>  <AltIds>


>  <MissingHeavyAtoms>
0

>  <ObservedFormula>
C7 N2

>  <Name>
BENZAMIDINE

>  <SystematicName>
benzenecarboximidamide

>  <Synonyms>


>  <Type>
NON-POLYMER

>  <Formula>
C7 H8 N2

>  <MolecularWeight>
120.152

>  <ModifiedDate>
2011-06-04

>  <Parent>


>  <OneLetterCode>


>  <SubcomponentList>


>  <AmbiguousFlag>
N

>  <InChI>
InChI=1S/C7H8N2/c8-7(9)6-4-2-1-3-5-6/h1-5H,(H3,8,9)

>  <InChIKey>
PXXJHWLDUBFPOL-UHFFFAOYSA-N

>  <SMILES>
[H]/N=C(\c1ccccc1)/N

$$$$
