3QQA_TCH_A_211
  RCSB PDB08012020163D
Coordinates from PDB:3QQA:A:211 Model:1 without hydrogens
 35 38  0  0  0  0            999 V2000
  -10.8720  -16.9300  -11.6910   C 0  0  0  0  0  0  0  0  0  0  0  0
  -12.3500  -17.1920  -11.9600   C 0  0  0  0  0  0  0  0  0  0  0  0
  -13.2660  -16.4840  -10.9850   C 0  0  0  0  0  0  0  0  0  0  0  0
  -13.6550  -15.1680  -11.4720   O 0  0  0  0  0  0  0  0  0  0  0  0
  -12.6890  -16.6730   -9.5880   C 0  0  0  0  0  0  0  0  0  0  0  0
  -11.8010  -17.8760   -9.8390   C 0  0  0  0  0  0  0  0  0  0  0  0
  -11.4650  -19.0100   -8.8990   C 0  0  0  0  0  0  0  0  0  0  0  0
  -11.3260  -20.1570   -9.8450   C 0  0  0  0  0  0  0  0  0  0  0  0
  -11.4370  -19.6970  -11.1960   O 0  0  0  0  0  0  0  0  0  0  0  0
   -9.8900  -20.0680   -9.7420   C 0  0  0  0  0  0  0  0  0  0  0  0
   -9.5340  -18.6760  -10.3030   C 0  0  0  0  0  0  0  0  0  0  0  0
  -10.4830  -17.4430  -10.3220   C 0  0  0  0  0  0  0  0  0  0  0  0
   -8.0320  -18.4320  -10.1930   C 0  0  0  0  0  0  0  0  0  0  0  0
   -7.2110  -19.7340  -10.2820   C 0  0  0  0  0  0  0  0  0  0  0  0
   -5.9140  -19.4530  -10.8510   O 0  0  0  0  0  0  0  0  0  0  0  0
   -7.8950  -21.1070  -10.5650   C 0  0  0  0  0  0  0  0  0  0  0  0
   -9.3960  -21.0470  -10.7270   C 0  0  0  0  0  0  0  0  0  0  0  0
   -9.8680  -22.4510  -10.8670   C 0  0  0  0  0  0  0  0  0  0  0  0
   -8.7370  -22.9640  -11.7790   C 0  0  0  0  0  0  0  0  0  0  0  0
   -7.6900  -21.8570  -11.8710   C 0  0  0  0  0  0  0  0  0  0  0  0
   -7.5540  -22.0800   -9.4560   C 0  0  0  0  0  0  0  0  0  0  0  0
  -10.0270  -16.2480   -9.4850   C 0  0  0  0  0  0  0  0  0  0  0  0
   -7.4360  -29.5170  -16.1330   O 0  0  0  0  0  0  0  0  0  0  0  0
   -6.2950  -22.3690  -12.1120   C 0  0  0  0  0  0  0  0  0  0  0  0
   -5.8270  -23.0990  -10.8870   C 0  0  0  0  0  0  0  0  0  0  0  0
   -6.1370  -23.1940  -13.3710   C 0  0  0  0  0  0  0  0  0  0  0  0
   -7.3080  -23.1240  -14.3320   C 0  0  0  0  0  0  0  0  0  0  0  0
   -7.8130  -24.5080  -14.5630   C 0  0  0  0  0  0  0  0  0  0  0  0
   -7.6350  -25.0890  -15.7450   N 0  0  0  0  0  0  0  0  0  0  0  0
   -8.3520  -25.0590  -13.6530   O 0  0  0  0  0  0  0  0  0  0  0  0
   -7.7360  -26.5420  -15.9000   C 0  0  0  0  0  0  0  0  0  0  0  0
   -6.6930  -27.1280  -16.8550   C 0  0  0  0  0  0  0  0  0  0  0  0
   -6.7170  -28.7650  -17.1660   S 0  0  0  0  0  0  0  0  0  0  0  0
   -5.3390  -29.2320  -17.3160   O 0  0  0  0  0  0  0  0  0  0  0  0
   -7.3580  -29.0870  -18.4420   O 0  0  0  0  0  0  0  0  0  0  0  0
  1  2  1  0  0  0  0
  2  3  1  0  0  0  0
  3  4  1  0  0  0  0
  5  3  1  0  0  0  0
  6  5  1  0  0  0  0
  7  6  1  0  0  0  0
  8  7  1  0  0  0  0
  8  9  1  0  0  0  0
 10  8  1  0  0  0  0
 10 11  1  0  0  0  0
 11 12  1  0  0  0  0
 12  1  1  0  0  0  0
 12  6  1  0  0  0  0
 13 11  1  0  0  0  0
 14 13  1  0  0  0  0
 14 15  1  0  0  0  0
 16 14  1  0  0  0  0
 16 17  1  0  0  0  0
 17 10  1  0  0  0  0
 18 17  1  0  0  0  0
 19 18  1  0  0  0  0
 19 20  1  0  0  0  0
 20 16  1  0  0  0  0
 21 16  1  0  0  0  0
 22 12  1  0  0  0  0
 23 33  2  0  0  0  0
 24 20  1  0  0  0  0
 25 24  1  0  0  0  0
 26 24  1  0  0  0  0
 27 26  1  0  0  0  0
 27 28  1  0  0  0  0
 28 30  2  0  0  0  0
 29 28  1  0  0  0  0
 29 31  1  0  0  0  0
 31 32  1  0  0  0  0
 32 33  1  0  0  0  0
 33 35  1  0  0  0  0
 34 33  2  0  0  0  0
M  END
>  <InstanceId>
3QQA_TCH_A_211

>  <ChemCompId>
TCH

>  <PdbId>
3QQA

>  <ChainId>
A

>  <ResidueNumber>
211

>  <InsertionCode>


>  <Model>
1

>  <AltIds>


>  <MissingHeavyAtoms>
0

>  <ObservedFormula>
C26 N O7 S

>  <Name>
TAUROCHOLIC ACID

>  <SystematicName>
2-[[(4R)-4-[(3R,5S,7R,8R,9S,10S,12S,13R,14S,17R)-10,13-dimethyl-3,7,12-tris(oxidanyl)-2,3,4,5,6,7,8,9,11,12,14,15,16,17-tetradecahydro-1H-cyclopenta[a]phenanthren-17-yl]pentanoyl]amino]ethanesulfonic acid

>  <Synonyms>


>  <Type>
NON-POLYMER

>  <Formula>
C26 H45 N O7 S

>  <MolecularWeight>
515.703

>  <ModifiedDate>
2011-08-04

>  <Parent>


>  <OneLetterCode>


>  <SubcomponentList>


>  <AmbiguousFlag>
N

>  <InChI>
InChI=1S/C26H45NO7S/c1-15(4-7-23(31)27-10-11-35(32,33)34)18-5-6-19-24-20(14-22(30)26(18,19)3)25(2)9-8-17(28)12-16(25)13-21(24)29/h15-22,24,28-30H,4-14H2,1-3H3,(H,27,31)(H,32,33,34)/t15-,16+,17-,18-,19+,20+,21-,22+,24+,25+,26-/m1/s1

>  <InChIKey>
WBWWGRHZICKQGZ-HZAMXZRMSA-N

>  <SMILES>
C[C@H](CCC(=O)NCCS(=O)(=O)O)[C@H]1CC[C@@H]2[C@@]1([C@H](C[C@H]3[C@H]2[C@@H](C[C@H]4[C@@]3(CC[C@H](C4)O)C)O)O)C

$$$$
