5ZAE_EAU_U_301
  RCSB PDB08022003493D
Coordinates from PDB:5ZAE:U:301 Model:1 without hydrogens
 25 27  0  0  0  0            999 V2000
  -27.4490  -16.1920   -3.4480   N 0  0  0  0  0  0  0  0  0  0  0  0
  -27.0440  -16.3170   -2.1500   C 0  0  0  0  0  0  0  0  0  0  0  0
  -28.3800  -17.2980    1.1010   O 0  0  0  0  0  0  0  0  0  0  0  0
  -28.8410  -16.7080   -5.2470   N 0  0  0  0  0  0  0  0  0  0  0  0
  -29.1710  -17.7600   -3.1500   C 0  0  0  0  0  0  0  0  0  0  0  0
  -31.0230  -19.1330   -2.5920   N 0  0  0  0  0  0  0  0  0  0  0  0
  -30.3380  -18.5740   -3.5980   C 0  0  0  0  0  0  0  0  0  0  0  0
  -25.4150  -15.4350   -0.3850   C 0  0  0  0  0  0  0  0  0  0  0  0
  -26.1290  -14.2570    0.2610   C 0  0  0  0  0  0  0  0  0  0  0  0
  -25.5910  -12.9520   -0.3210   C 0  0  0  0  0  0  0  0  0  0  0  0
  -26.3590  -12.5320   -1.5690   C 0  0  0  0  0  0  0  0  0  0  0  0
  -30.6430  -18.6790   -4.7650   O 0  0  0  0  0  0  0  0  0  0  0  0
  -31.8820  -20.1280   -2.7370   C 0  0  0  0  0  0  0  0  0  0  0  0
  -32.4990  -20.5730   -1.6340   N 0  0  0  0  0  0  0  0  0  0  0  0
  -32.1120  -20.6540   -3.9470   N 0  0  0  0  0  0  0  0  0  0  0  0
  -28.4810  -16.8850   -3.9540   C 0  0  0  0  0  0  0  0  0  0  0  0
  -28.8120  -17.9070   -1.8640   N 0  0  0  0  0  0  0  0  0  0  0  0
  -27.7750  -17.2200   -1.3520   C 0  0  0  0  0  0  0  0  0  0  0  0
  -27.5400  -17.5730    0.0610   C 0  0  0  0  0  0  0  0  0  0  0  0
  -26.4660  -18.3250    0.5290   C 0  0  0  0  0  0  0  0  0  0  0  0
  -26.6270  -18.4590    1.8920   C 0  0  0  0  0  0  0  0  0  0  0  0
  -27.8000  -17.8280    2.2420   C 0  0  0  0  0  0  0  0  0  0  0  0
  -25.9550  -15.5100   -1.7410   N 0  0  0  0  0  0  0  0  0  0  0  0
  -25.2740  -14.6320   -2.6780   C 0  0  0  0  0  0  0  0  0  0  0  0
  -26.0270  -13.3120   -2.8490   C 0  0  0  0  0  0  0  0  0  0  0  0
  4 16  1  0  0  0  0
 12  7  2  0  0  0  0
 16  1  2  0  0  0  0
 16  5  1  0  0  0  0
 15 13  2  0  0  0  0
  7  5  1  0  0  0  0
  7  6  1  0  0  0  0
  1  2  1  0  0  0  0
  5 17  2  0  0  0  0
 25 24  1  0  0  0  0
 25 11  1  0  0  0  0
 13  6  1  0  0  0  0
 13 14  1  0  0  0  0
 24 23  1  0  0  0  0
  2 23  1  0  0  0  0
  2 18  2  0  0  0  0
 17 18  1  0  0  0  0
 23  8  1  0  0  0  0
 11 10  1  0  0  0  0
 18 19  1  0  0  0  0
  8  9  1  0  0  0  0
 10  9  1  0  0  0  0
 19 20  2  0  0  0  0
 19  3  1  0  0  0  0
 20 21  1  0  0  0  0
  3 22  1  0  0  0  0
 21 22  2  0  0  0  0
M  END
>  <InstanceId>
5ZAE_EAU_U_301

>  <ChemCompId>
EAU

>  <PdbId>
5ZAE

>  <ChainId>
U

>  <ResidueNumber>
301

>  <InsertionCode>


>  <Model>
1

>  <AltIds>


>  <MissingHeavyAtoms>
0

>  <ObservedFormula>
C16 N7 O2

>  <Name>
3-azanyl-5-(azepan-1-yl)-N-carbamimidoyl-6-(furan-2-yl)pyrazine-2-carboxamide

>  <SystematicName>
3-azanyl-5-(azepan-1-yl)-~{N}-carbamimidoyl-6-(furan-2-yl)pyrazine-2-carboxamide

>  <Synonyms>


>  <Type>
NON-POLYMER

>  <Formula>
C16 H21 N7 O2

>  <MolecularWeight>
343.384

>  <ModifiedDate>
2018-12-14

>  <Parent>


>  <OneLetterCode>


>  <SubcomponentList>


>  <AmbiguousFlag>
N

>  <InChI>
InChI=1S/C16H21N7O2/c17-13-12(15(24)22-16(18)19)20-11(10-6-5-9-25-10)14(21-13)23-7-3-1-2-4-8-23/h5-6,9H,1-4,7-8H2,(H2,17,21)(H4,18,19,22,24)

>  <InChIKey>
XDWIBAHBFLHWJO-UHFFFAOYSA-N

>  <SMILES>
[H]/N=C(/N)\NC(=O)c1c(nc(c(n1)c2ccco2)N3CCCCCC3)N

$$$$
