4BCN_T9N_A_1299
  RCSB PDB08012021133D
Coordinates from PDB:4BCN:A:1299 Model:1 without hydrogens
 24 26  0  0  0  0            999 V2000
    4.3890   21.8710   18.8380   C 0  0  0  0  0  0  0  0  0  0  0  0
    4.2010   20.5840   19.4460   N 0  0  0  0  0  0  0  0  0  0  0  0
    4.9920   20.4840   20.6460   C 0  0  0  0  0  0  0  0  0  0  0  0
    6.0130   19.6360   20.8270   N 0  0  0  0  0  0  0  0  0  0  0  0
    6.9310   19.9390   21.8340   C 0  0  0  0  0  0  0  0  0  0  0  0
    7.9580   18.9660   22.3250   C 0  0  0  0  0  0  0  0  0  0  0  0
    6.8810   21.3610   22.1470   C 0  0  0  0  0  0  0  0  0  0  0  0
    7.7970   22.2180   22.9770   C 0  0  0  0  0  0  0  0  0  0  0  0
    7.2680   23.0940   23.8910   N 0  0  0  0  0  0  0  0  0  0  0  0
    7.9310   23.9570   24.7160   C 0  0  0  0  0  0  0  0  0  0  0  0
    7.2860   24.8700   25.6120   N 0  0  0  0  0  0  0  0  0  0  0  0
    6.0260   25.5000   25.3010   C 0  0  0  0  0  0  0  0  0  0  0  0
    5.3380   25.2210   24.1640   C 0  0  0  0  0  0  0  0  0  0  0  0
    4.0140   25.9160   23.8970   C 0  0  0  0  0  0  0  0  0  0  0  0
    3.2970   25.6610   22.7480   O 0  0  0  0  0  0  0  0  0  0  0  0
    3.5230   26.8160   24.7950   C 0  0  0  0  0  0  0  0  0  0  0  0
    4.2720   27.1180   26.0330   C 0  0  0  0  0  0  0  0  0  0  0  0
    5.4700   26.4910   26.2810   C 0  0  0  0  0  0  0  0  0  0  0  0
    9.2410   23.8860   24.5640   N 0  0  0  0  0  0  0  0  0  0  0  0
    9.8740   23.0660   23.6970   C 0  0  0  0  0  0  0  0  0  0  0  0
    9.1950   22.1770   22.8340   C 0  0  0  0  0  0  0  0  0  0  0  0
    9.8800   21.2920   21.8530   C 0  0  0  0  0  0  0  0  0  0  0  0
   10.3840   20.6160   21.0910   N 0  0  0  0  0  0  0  0  0  0  0  0
    5.2030   21.7650   21.7900   S 0  0  0  0  0  0  0  0  0  0  0  0
  1  2  1  0  0  0  0
  2  3  1  0  0  0  0
  3  4  2  0  0  0  0
  3 24  1  0  0  0  0
  4  5  1  0  0  0  0
  5  6  1  0  0  0  0
  5  7  2  0  0  0  0
  7  8  1  0  0  0  0
  7 24  1  0  0  0  0
  8  9  1  0  0  0  0
  8 21  2  0  0  0  0
  9 10  2  0  0  0  0
 10 11  1  0  0  0  0
 10 19  1  0  0  0  0
 11 12  1  0  0  0  0
 12 13  1  0  0  0  0
 12 18  2  0  0  0  0
 13 14  2  0  0  0  0
 14 15  1  0  0  0  0
 14 16  1  0  0  0  0
 16 17  2  0  0  0  0
 17 18  1  0  0  0  0
 19 20  2  0  0  0  0
 20 21  1  0  0  0  0
 21 22  1  0  0  0  0
 22 23  3  0  0  0  0
M  END
>  <InstanceId>
4BCN_T9N_A_1299

>  <ChemCompId>
T9N

>  <PdbId>
4BCN

>  <ChainId>
A

>  <ResidueNumber>
1299

>  <InsertionCode>


>  <Model>
1

>  <AltIds>


>  <MissingHeavyAtoms>
0

>  <ObservedFormula>
C16 N6 O S

>  <Name>
2-[(3-hydroxyphenyl)amino]-4-[4-methyl-2-(methylamino)-1,3-thiazol-5-yl]pyrimidine-5-carbonitrile

>  <SystematicName>
2-[(3-hydroxyphenyl)amino]-4-[4-methyl-2-(methylamino)-1,3-thiazol-5-yl]pyrimidine-5-carbonitrile

>  <Synonyms>


>  <Type>
non-polymer

>  <Formula>
C16 H14 N6 O S

>  <MolecularWeight>
338.387

>  <ModifiedDate>
2014-09-05

>  <Parent>


>  <OneLetterCode>


>  <SubcomponentList>


>  <AmbiguousFlag>
N

>  <InChI>
InChI=1S/C16H14N6OS/c1-9-14(24-16(18-2)20-9)13-10(7-17)8-19-15(22-13)21-11-4-3-5-12(23)6-11/h3-6,8,23H,1-2H3,(H,18,20)(H,19,21,22)

>  <InChIKey>
NYRVLHGVDPPWJS-UHFFFAOYSA-N

>  <SMILES>
Cc1c(sc(n1)NC)c2c(cnc(n2)Nc3cccc(c3)O)C#N

$$$$
