1UTN_ABN_A_246
  RCSB PDB08012016063D
Coordinates from PDB:1UTN:A:246 Model:1 without hydrogens
  8  8  0  0  0  0            999 V2000
   30.2440   16.3720   14.3550   N 0  0  0  0  0  0  0  0  0  0  0  0
   28.9530   16.4890   14.9520   C 0  0  0  0  0  0  0  0  0  0  0  0
   28.8580   15.6770   16.1470   C 0  0  0  0  0  0  0  0  0  0  0  0
   28.9900   14.3000   16.2130   C 0  0  0  0  0  0  0  0  0  0  0  0
   28.8110   13.5170   17.3890   C 0  0  0  0  0  0  0  0  0  0  0  0
   28.6490   14.1390   18.6670   C 0  0  0  0  0  0  0  0  0  0  0  0
   28.5200   15.4850   18.6020   C 0  0  0  0  0  0  0  0  0  0  0  0
   28.6700   16.2560   17.4410   C 0  0  0  0  0  0  0  0  0  0  0  0
  1  2  1  0  0  0  0
  2  3  1  0  0  0  0
  3  4  2  0  0  0  0
  3  8  1  0  0  0  0
  4  5  1  0  0  0  0
  5  6  2  0  0  0  0
  6  7  1  0  0  0  0
  7  8  2  0  0  0  0
M  END
>  <InstanceId>
1UTN_ABN_A_246

>  <ChemCompId>
ABN

>  <PdbId>
1UTN

>  <ChainId>
A

>  <ResidueNumber>
246

>  <InsertionCode>


>  <Model>
1

>  <AltIds>


>  <MissingHeavyAtoms>
0

>  <ObservedFormula>
C7 N

>  <Name>
BENZYLAMINE

>  <SystematicName>
phenylmethanamine

>  <Synonyms>


>  <Type>
NON-POLYMER

>  <Formula>
C7 H9 N

>  <MolecularWeight>
107.153

>  <ModifiedDate>
2011-06-04

>  <Parent>


>  <OneLetterCode>


>  <SubcomponentList>


>  <AmbiguousFlag>
N

>  <InChI>
InChI=1S/C7H9N/c8-6-7-4-2-1-3-5-7/h1-5H,6,8H2

>  <InChIKey>
WGQKYBSKWIADBV-UHFFFAOYSA-N

>  <SMILES>
c1ccc(cc1)CN

$$$$
