4ZB8_GDS_A_300
  RCSB PDB08022000373D
Coordinates from PDB:4ZB8:A:300 Model:1 without hydrogens
 40 39  0  0  0  0            999 V2000
  -10.5320    4.5070   -3.7610   N 0  0  0  0  0  0  0  0  0  0  0  0
  -10.5950    5.5150   -4.7970   C 0  0  0  0  0  0  0  0  0  0  0  0
  -11.7030    5.1920   -5.7640   C 0  0  0  0  0  0  0  0  0  0  0  0
  -11.8660    4.0090   -6.1010   O 0  0  0  0  0  0  0  0  0  0  0  0
  -12.4060    6.1150   -6.2000   O 0  0  0  0  0  0  0  0  0  0  0  0
   -9.2630    5.5710   -5.5470   C 0  0  0  0  0  0  0  0  0  0  0  0
   -9.0960    6.8910   -6.2860   C 0  0  0  0  0  0  0  0  0  0  0  0
   -7.8060    6.9250   -7.0800   C 0  0  0  0  0  0  0  0  0  0  0  0
   -6.8490    6.2610   -6.7360   O 0  0  0  0  0  0  0  0  0  0  0  0
   -7.7930    7.7130   -8.1510   N 0  0  0  0  0  0  0  0  0  0  0  0
   -6.5720    8.0640   -8.8520   C 0  0  0  0  0  0  0  0  0  0  0  0
   -6.1710    9.4970   -8.6290   C 0  0  0  0  0  0  0  0  0  0  0  0
   -7.0000   10.3860   -8.6030   O 0  0  0  0  0  0  0  0  0  0  0  0
   -6.7300    7.8020  -10.3490   C 0  0  0  0  0  0  0  0  0  0  0  0
   -6.5230    6.0890  -10.6970   S 0  0  0  0  0  0  0  0  0  0  0  0
   -4.8760    9.7330   -8.4670   N 0  0  0  0  0  0  0  0  0  0  0  0
   -4.3900   11.0570   -8.1360   C 0  0  0  0  0  0  0  0  0  0  0  0
   -3.5610   11.0720   -6.8740   C 0  0  0  0  0  0  0  0  0  0  0  0
   -2.5560   11.8070   -6.8310   O 0  0  0  0  0  0  0  0  0  0  0  0
   -3.9130   10.3430   -5.9280   O 0  0  0  0  0  0  0  0  0  0  0  0
   -5.1130    4.0490   -6.3280   N 0  0  0  0  0  0  0  0  0  0  0  0
   -5.3970    2.9930   -5.3810   C 0  0  0  0  0  0  0  0  0  0  0  0
   -6.7390    2.3320   -5.6110   C 0  0  0  0  0  0  0  0  0  0  0  0
   -7.2050    2.2650   -6.7670   O 0  0  0  0  0  0  0  0  0  0  0  0
   -7.3260    1.8730   -4.6200   O 0  0  0  0  0  0  0  0  0  0  0  0
   -3.9710    4.1060   -7.0040   C 0  0  0  0  0  0  0  0  0  0  0  0
   -3.0530    3.3380   -6.8080   O 0  0  0  0  0  0  0  0  0  0  0  0
   -3.8530    5.1750   -8.0610   C 0  0  0  0  0  0  0  0  0  0  0  0
   -2.4990    5.6800   -8.1520   N 0  0  0  0  0  0  0  0  0  0  0  0
   -4.3160    4.6200   -9.4090   C 0  0  0  0  0  0  0  0  0  0  0  0
   -4.5110    5.8810  -10.6330   S 0  0  0  0  0  0  0  0  0  0  0  0
   -0.7240    8.6650   -5.8630   C 0  0  0  0  0  0  0  0  0  0  0  0
    0.2660    7.8140   -5.1160   C 0  0  0  0  0  0  0  0  0  0  0  0
    1.2660    8.3590   -4.6010   O 0  0  0  0  0  0  0  0  0  0  0  0
    0.0500    6.5930   -5.0440   O 0  0  0  0  0  0  0  0  0  0  0  0
   -0.6400   10.0270   -5.3810   N 0  0  0  0  0  0  0  0  0  0  0  0
   -0.4290    8.6430   -7.3600   C 0  0  0  0  0  0  0  0  0  0  0  0
   -0.7070    7.2920   -8.0100   C 0  0  0  0  0  0  0  0  0  0  0  0
   -2.1840    6.9630   -7.9960   C 0  0  0  0  0  0  0  0  0  0  0  0
   -3.0110    7.8400   -7.8490   O 0  0  0  0  0  0  0  0  0  0  0  0
  1  2  1  0  0  0  0
  2  3  1  0  0  0  0
  2  6  1  0  0  0  0
  3  4  2  0  0  0  0
  3  5  1  0  0  0  0
  6  7  1  0  0  0  0
  7  8  1  0  0  0  0
  8  9  2  0  0  0  0
  8 10  1  0  0  0  0
 10 11  1  0  0  0  0
 11 12  1  0  0  0  0
 11 14  1  0  0  0  0
 12 13  2  0  0  0  0
 12 16  1  0  0  0  0
 14 15  1  0  0  0  0
 15 31  1  0  0  0  0
 16 17  1  0  0  0  0
 17 18  1  0  0  0  0
 18 19  2  0  0  0  0
 18 20  1  0  0  0  0
 21 22  1  0  0  0  0
 21 26  1  0  0  0  0
 22 23  1  0  0  0  0
 23 24  2  0  0  0  0
 23 25  1  0  0  0  0
 26 27  2  0  0  0  0
 26 28  1  0  0  0  0
 28 29  1  0  0  0  0
 28 30  1  0  0  0  0
 29 39  1  0  0  0  0
 30 31  1  0  0  0  0
 32 33  1  0  0  0  0
 32 36  1  0  0  0  0
 32 37  1  0  0  0  0
 33 34  2  0  0  0  0
 33 35  1  0  0  0  0
 37 38  1  0  0  0  0
 38 39  1  0  0  0  0
 39 40  2  0  0  0  0
M  END
>  <InstanceId>
4ZB8_GDS_A_300

>  <ChemCompId>
GDS

>  <PdbId>
4ZB8

>  <ChainId>
A

>  <ResidueNumber>
300

>  <InsertionCode>


>  <Model>
1

>  <AltIds>


>  <MissingHeavyAtoms>
0

>  <ObservedFormula>
C20 N6 O12 S2

>  <Name>
OXIDIZED GLUTATHIONE DISULFIDE

>  <SystematicName>
(2S)-2-amino-5-[[(2R)-3-[(2R)-2-[[(4S)-4-amino-5-hydroxy-5-oxo-pentanoyl]amino]-3-(carboxymethylamino)-3-oxo-propyl]disulfanyl-1-(carboxymethylamino)-1-oxo-propan-2-yl]amino]-5-oxo-pentanoic acid

>  <Synonyms>


>  <Type>
NON-POLYMER

>  <Formula>
C20 H32 N6 O12 S2

>  <MolecularWeight>
612.631

>  <ModifiedDate>
2011-06-04

>  <Parent>


>  <OneLetterCode>


>  <SubcomponentList>


>  <AmbiguousFlag>
N

>  <InChI>
InChI=1S/C20H32N6O12S2/c21-9(19(35)36)1-3-13(27)25-11(17(33)23-5-15(29)30)7-39-40-8-12(18(34)24-6-16(31)32)26-14(28)4-2-10(22)20(37)38/h9-12H,1-8,21-22H2,(H,23,33)(H,24,34)(H,25,27)(H,26,28)(H,29,30)(H,31,32)(H,35,36)(H,37,38)/t9-,10-,11-,12-/m0/s1

>  <InChIKey>
YPZRWBKMTBYPTK-BJDJZHNGSA-N

>  <SMILES>
C(CC(=O)N[C@@H](CSSC[C@@H](C(=O)NCC(=O)O)NC(=O)CC[C@@H](C(=O)O)N)C(=O)NCC(=O)O)[C@@H](C(=O)O)N

$$$$
