4Q93_STL_A_401
  RCSB PDB08012022583D
Coordinates from PDB:4Q93:A:401 Model:1 without hydrogens
 17 18  0  0  0  0            999 V2000
  -10.5260    9.6160   -7.4610   C 0  0  0  0  0  0  0  0  0  0  0  0
   -9.1220    9.6830   -7.2780   C 0  0  0  0  0  0  0  0  0  0  0  0
   -8.3870   10.7870   -7.7610   C 0  0  0  0  0  0  0  0  0  0  0  0
   -9.1170   11.7870   -8.4090   C 0  0  0  0  0  0  0  0  0  0  0  0
  -10.5000   11.6660   -8.5980   C 0  0  0  0  0  0  0  0  0  0  0  0
  -11.2230   10.6040   -8.0970   C 0  0  0  0  0  0  0  0  0  0  0  0
  -11.2450   12.6870   -9.3320   C 0  0  0  0  0  0  0  0  0  0  0  0
  -10.9900   13.2610  -10.4990   C 0  0  0  0  0  0  0  0  0  0  0  0
   -9.7070   13.4520  -11.2260   C 0  0  0  0  0  0  0  0  0  0  0  0
   -9.0210   12.3350  -11.6790   C 0  0  0  0  0  0  0  0  0  0  0  0
   -7.7750   12.4570  -12.3170   C 0  0  0  0  0  0  0  0  0  0  0  0
   -7.2250   13.7000  -12.4900   C 0  0  0  0  0  0  0  0  0  0  0  0
   -7.8730   14.8140  -11.9970   C 0  0  0  0  0  0  0  0  0  0  0  0
   -9.1160   14.6900  -11.3660   C 0  0  0  0  0  0  0  0  0  0  0  0
   -6.0040   13.8690  -13.0630   O 0  0  0  0  0  0  0  0  0  0  0  0
   -7.0000   10.9080   -7.6790   O 0  0  0  0  0  0  0  0  0  0  0  0
  -11.2940    8.5910   -7.0390   O 0  0  0  0  0  0  0  0  0  0  0  0
  1  2  2  0  0  0  0
  1  6  1  0  0  0  0
  1 17  1  0  0  0  0
  2  3  1  0  0  0  0
  3  4  2  0  0  0  0
  3 16  1  0  0  0  0
  4  5  1  0  0  0  0
  5  6  2  0  0  0  0
  5  7  1  0  0  0  0
  7  8  2  0  0  0  0
  8  9  1  0  0  0  0
  9 10  2  0  0  0  0
  9 14  1  0  0  0  0
 10 11  1  0  0  0  0
 11 12  2  0  0  0  0
 12 13  1  0  0  0  0
 12 15  1  0  0  0  0
 13 14  2  0  0  0  0
M  END
>  <InstanceId>
4Q93_STL_A_401

>  <ChemCompId>
STL

>  <PdbId>
4Q93

>  <ChainId>
A

>  <ResidueNumber>
401

>  <InsertionCode>


>  <Model>
1

>  <AltIds>


>  <MissingHeavyAtoms>
0

>  <ObservedFormula>
C14 O3

>  <Name>
RESVERATROL

>  <SystematicName>
5-[(E)-2-(4-hydroxyphenyl)ethenyl]benzene-1,3-diol

>  <Synonyms>


>  <Type>
NON-POLYMER

>  <Formula>
C14 H12 O3

>  <MolecularWeight>
228.243

>  <ModifiedDate>
2011-06-04

>  <Parent>


>  <OneLetterCode>


>  <SubcomponentList>


>  <AmbiguousFlag>
N

>  <InChI>
InChI=1S/C14H12O3/c15-12-5-3-10(4-6-12)1-2-11-7-13(16)9-14(17)8-11/h1-9,15-17H/b2-1+

>  <InChIKey>
LUKBXSAWLPMMSZ-OWOJBTEDSA-N

>  <SMILES>
c1cc(ccc1\C=C\c2cc(cc(c2)O)O)O

$$$$
