5NVX_4YY_C_301
  RCSB PDB08022002363D
Coordinates from PDB:5NVX:C:301 Model:1 without hydrogens
 36 39  0  0  0  0            999 V2000
   10.2010   56.7800   96.8960   C 0  0  0  0  0  0  0  0  0  0  0  0
    9.7200   57.5010   95.6460   C 0  0  0  0  0  0  0  0  0  0  0  0
   10.1120   56.0430   95.5630   C 0  0  0  0  0  0  0  0  0  0  0  0
    9.1570   55.1980   95.4460   F 0  0  0  0  0  0  0  0  0  0  0  0
   11.4290   55.6500   94.8770   C 0  0  0  0  0  0  0  0  0  0  0  0
   12.4260   56.3500   95.0050   O 0  0  0  0  0  0  0  0  0  0  0  0
   11.3780   54.4730   94.2460   N 0  0  0  0  0  0  0  0  0  0  0  0
   12.4960   53.8460   93.5140   C 0  0  0  0  0  0  0  0  0  0  0  0
   12.7200   52.3930   94.0120   C 0  0  0  0  0  0  0  0  0  0  0  0
   13.1750   52.4790   95.4710   C 0  0  0  0  0  0  0  0  0  0  0  0
   13.8070   51.7170   93.1780   C 0  0  0  0  0  0  0  0  0  0  0  0
   11.4280   51.5250   93.9440   C 0  0  0  0  0  0  0  0  0  0  0  0
   12.1460   53.9270   92.0040   C 0  0  0  0  0  0  0  0  0  0  0  0
   10.9930   53.7360   91.6450   O 0  0  0  0  0  0  0  0  0  0  0  0
   13.1200   54.2780   91.1270   N 0  0  0  0  0  0  0  0  0  0  0  0
   14.5630   54.6050   91.3470   C 0  0  0  0  0  0  0  0  0  0  0  0
   14.9560   55.4380   90.1230   C 0  0  0  0  0  0  0  0  0  0  0  0
   14.5500   56.8090   90.2800   O 0  0  0  0  0  0  0  0  0  0  0  0
   14.1580   54.8120   89.0040   C 0  0  0  0  0  0  0  0  0  0  0  0
   12.8150   54.4200   89.6400   C 0  0  0  0  0  0  0  0  0  0  0  0
   12.3910   53.2210   89.0350   C 0  0  0  0  0  0  0  0  0  0  0  0
   12.8460   52.1490   89.4130   O 0  0  0  0  0  0  0  0  0  0  0  0
   11.5400   53.3430   87.9880   N 0  0  0  0  0  0  0  0  0  0  0  0
   11.0680   52.1970   87.1810   C 0  0  0  0  0  0  0  0  0  0  0  0
   11.8860   51.9730   86.0200   C 0  0  0  0  0  0  0  0  0  0  0  0
   11.8070   50.7560   85.3530   C 0  0  0  0  0  0  0  0  0  0  0  0
   12.5770   50.5030   84.2130   C 0  0  0  0  0  0  0  0  0  0  0  0
   12.7640   52.9360   85.5020   C 0  0  0  0  0  0  0  0  0  0  0  0
   13.5380   52.6840   84.3550   C 0  0  0  0  0  0  0  0  0  0  0  0
   13.4510   51.4650   83.6890   C 0  0  0  0  0  0  0  0  0  0  0  0
   14.2000   51.2400   82.5860   C 0  0  0  0  0  0  0  0  0  0  0  0
   15.8260   51.7050   82.3860   S 0  0  0  0  0  0  0  0  0  0  0  0
   15.9760   51.0920   80.8460   C 0  0  0  0  0  0  0  0  0  0  0  0
   14.8050   50.5490   80.4960   N 0  0  0  0  0  0  0  0  0  0  0  0
   13.8390   50.6280   81.4340   C 0  0  0  0  0  0  0  0  0  0  0  0
   12.4650   50.0160   81.1340   C 0  0  0  0  0  0  0  0  0  0  0  0
 34 33  2  0  0  0  0
 34 35  1  0  0  0  0
 33 32  1  0  0  0  0
 36 35  1  0  0  0  0
 35 31  2  0  0  0  0
 32 31  1  0  0  0  0
 31 30  1  0  0  0  0
 30 27  2  0  0  0  0
 30 29  1  0  0  0  0
 27 26  1  0  0  0  0
 29 28  2  0  0  0  0
 26 25  2  0  0  0  0
 28 25  1  0  0  0  0
 25 24  1  0  0  0  0
 24 23  1  0  0  0  0
 23 21  1  0  0  0  0
 19 20  1  0  0  0  0
 19 17  1  0  0  0  0
 21 22  2  0  0  0  0
 21 20  1  0  0  0  0
 20 15  1  0  0  0  0
 17 18  1  0  0  0  0
 17 16  1  0  0  0  0
 15 16  1  0  0  0  0
 15 13  1  0  0  0  0
 14 13  2  0  0  0  0
 13  8  1  0  0  0  0
 11  9  1  0  0  0  0
  8  9  1  0  0  0  0
  8  7  1  0  0  0  0
 12  9  1  0  0  0  0
  9 10  1  0  0  0  0
  7  5  1  0  0  0  0
  5  6  2  0  0  0  0
  5  3  1  0  0  0  0
  4  3  1  0  0  0  0
  3  2  1  0  0  0  0
  3  1  1  0  0  0  0
  2  1  1  0  0  0  0
M  END
>  <InstanceId>
5NVX_4YY_C_301

>  <ChemCompId>
4YY

>  <PdbId>
5NVX

>  <ChainId>
C

>  <ResidueNumber>
301

>  <InsertionCode>


>  <Model>
1

>  <AltIds>


>  <MissingHeavyAtoms>
0

>  <ObservedFormula>
C26 N4 O4 S F

>  <Name>
N-[(1-fluorocyclopropyl)carbonyl]-3-methyl-L-valyl-(4R)-4-hydroxy-N-[4-(4-methyl-1,3-thiazol-5-yl)benzyl]-L-prolinamide

>  <SystematicName>
(2S,4R)-1-[(2S)-2-[(1-fluoranylcyclopropyl)carbonylamino]-3,3-dimethyl-butanoyl]-N-[[4-(4-methyl-1,3-thiazol-5-yl)phenyl]methyl]-4-oxidanyl-pyrrolidine-2-carboxamide

>  <Synonyms>


>  <Type>
NON-POLYMER

>  <Formula>
C26 H33 F N4 O4 S

>  <MolecularWeight>
516.628

>  <ModifiedDate>
2017-09-15

>  <Parent>


>  <OneLetterCode>


>  <SubcomponentList>


>  <AmbiguousFlag>
N

>  <InChI>
InChI=1S/C26H33FN4O4S/c1-15-20(36-14-29-15)17-7-5-16(6-8-17)12-28-22(33)19-11-18(32)13-31(19)23(34)21(25(2,3)4)30-24(35)26(27)9-10-26/h5-8,14,18-19,21,32H,9-13H2,1-4H3,(H,28,33)(H,30,35)/t18-,19+,21-/m1/s1

>  <InChIKey>
GFNCBUDQFXZVNN-SVFBPWRDSA-N

>  <SMILES>
Cc1c(scn1)c2ccc(cc2)CNC(=O)[C@@H]3C[C@H](CN3C(=O)[C@H](C(C)(C)C)NC(=O)C4(CC4)F)O

$$$$
