4UMB_0V5_A_1353
  RCSB PDB08012023383D
Coordinates from PDB:4UMB:A:1353 Model:1 without hydrogens
 10  9  0  0  0  0            999 V2000
   45.2510  -22.7690   -3.1840   C 0  0  0  0  0  0  0  0  0  0  0  0
   44.5030  -23.1800   -2.2720   O 0  0  0  0  0  0  0  0  0  0  0  0
   45.9830  -21.7570   -3.1410   O 0  0  0  0  0  0  0  0  0  0  0  0
   45.2140  -23.5940   -4.4550   C 0  0  0  0  0  0  0  0  0  0  0  0
   43.9030  -23.2080   -5.1490   C 0  0  0  0  0  0  0  0  0  0  0  0
   46.3310  -23.3010   -5.3120   O 0  0  0  0  0  0  0  0  0  0  0  0
   46.6820  -24.3070   -6.5450   P 0  0  0  0  0  0  0  0  0  0  0  0
   46.1840  -23.4840   -7.8140   O 0  0  0  0  0  0  0  0  0  0  0  0
   48.2820  -24.3260   -6.6820   O 0  0  0  0  0  0  0  0  0  0  0  0
   45.9440  -25.6160   -6.4710   O 0  0  0  0  0  0  0  0  0  0  0  0
  2  1  2  0  0  0  0
  3  1  1  0  0  0  0
  1  4  1  0  0  0  0
  4  5  1  0  0  0  0
  4  6  1  0  0  0  0
  8  7  2  0  0  0  0
  6  7  1  0  0  0  0
  7  9  1  0  0  0  0
  7 10  1  0  0  0  0
M  END
>  <InstanceId>
4UMB_0V5_A_1353

>  <ChemCompId>
0V5

>  <PdbId>
4UMB

>  <ChainId>
A

>  <ResidueNumber>
1353

>  <InsertionCode>


>  <Model>
1

>  <AltIds>


>  <MissingHeavyAtoms>
0

>  <ObservedFormula>
C3 O6 P

>  <Name>
(2R)-2-(phosphonooxy)propanoic acid

>  <SystematicName>
(2R)-2-phosphonooxypropanoic acid

>  <Synonyms>


>  <Type>
NON-POLYMER

>  <Formula>
C3 H7 O6 P

>  <MolecularWeight>
170.058

>  <ModifiedDate>
2012-08-17

>  <Parent>


>  <OneLetterCode>


>  <SubcomponentList>


>  <AmbiguousFlag>
N

>  <InChI>
InChI=1S/C3H7O6P/c1-2(3(4)5)9-10(6,7)8/h2H,1H3,(H,4,5)(H2,6,7,8)/t2-/m1/s1

>  <InChIKey>
CSZRNWHGZPKNKY-UWTATZPHSA-N

>  <SMILES>
C[C@H](C(=O)O)OP(=O)(O)O

$$$$
