3C2U_B3P_A_539
  RCSB PDB08012018413D
Coordinates from PDB:3C2U:A:539 Model:1 without hydrogens
 19 18  0  0  0  0            999 V2000
   61.1180   38.1320   48.2560   C 0  0  0  0  0  0  0  0  0  0  0  0
   60.3360   38.9610   47.2550   C 0  0  0  0  0  0  0  0  0  0  0  0
   60.2060   37.5320   49.2840   C 0  0  0  0  0  0  0  0  0  0  0  0
   61.0240   36.8030   50.2530   N 0  0  0  0  0  0  0  0  0  0  0  0
   60.4920   35.6410   50.9440   C 0  0  0  0  0  0  0  0  0  0  0  0
   61.4450   35.1150   51.9590   C 0  0  0  0  0  0  0  0  0  0  0  0
   59.2420   36.0590   51.7270   C 0  0  0  0  0  0  0  0  0  0  0  0
   60.3420   34.5270   49.9020   C 0  0  0  0  0  0  0  0  0  0  0  0
   59.4100   38.1560   46.5040   N 0  0  0  0  0  0  0  0  0  0  0  0
   59.7510   37.3700   45.3260   C 0  0  0  0  0  0  0  0  0  0  0  0
   60.8170   36.2980   45.5750   C 0  0  0  0  0  0  0  0  0  0  0  0
   60.3060   38.2340   44.1660   C 0  0  0  0  0  0  0  0  0  0  0  0
   58.4200   36.7800   44.9070   C 0  0  0  0  0  0  0  0  0  0  0  0
   60.4370   35.2010   46.4270   O 0  0  0  0  0  0  0  0  0  0  0  0
   59.4490   39.3870   43.9490   O 0  0  0  0  0  0  0  0  0  0  0  0
   58.6310   35.7470   43.9600   O 0  0  0  0  0  0  0  0  0  0  0  0
   61.8080   36.2390   52.8770   O 0  0  0  0  0  0  0  0  0  0  0  0
   58.4400   34.9450   52.1340   O 0  0  0  0  0  0  0  0  0  0  0  0
   59.0390   34.4940   49.3340   O 0  0  0  0  0  0  0  0  0  0  0  0
  1  2  1  0  0  0  0
  1  3  1  0  0  0  0
  2  9  1  0  0  0  0
  3  4  1  0  0  0  0
  4  5  1  0  0  0  0
  5  6  1  0  0  0  0
  5  7  1  0  0  0  0
  5  8  1  0  0  0  0
  6 17  1  0  0  0  0
  7 18  1  0  0  0  0
  8 19  1  0  0  0  0
  9 10  1  0  0  0  0
 10 11  1  0  0  0  0
 10 12  1  0  0  0  0
 10 13  1  0  0  0  0
 11 14  1  0  0  0  0
 12 15  1  0  0  0  0
 13 16  1  0  0  0  0
M  END
>  <InstanceId>
3C2U_B3P_A_539

>  <ChemCompId>
B3P

>  <PdbId>
3C2U

>  <ChainId>
A

>  <ResidueNumber>
539

>  <InsertionCode>


>  <Model>
1

>  <AltIds>


>  <MissingHeavyAtoms>
0

>  <ObservedFormula>
C11 N2 O6

>  <Name>
2-[3-(2-HYDROXY-1,1-DIHYDROXYMETHYL-ETHYLAMINO)-PROPYLAMINO]-2-HYDROXYMETHYL-PROPANE-1,3-DIOL

>  <SystematicName>
2-[3-[[1,3-dihydroxy-2-(hydroxymethyl)propan-2-yl]amino]propylamino]-2-(hydroxymethyl)propane-1,3-diol

>  <Synonyms>


>  <Type>
NON-POLYMER

>  <Formula>
C11 H26 N2 O6

>  <MolecularWeight>
282.334

>  <ModifiedDate>
2011-06-04

>  <Parent>


>  <OneLetterCode>


>  <SubcomponentList>


>  <AmbiguousFlag>
N

>  <InChI>
InChI=1S/C11H26N2O6/c14-4-10(5-15,6-16)12-2-1-3-13-11(7-17,8-18)9-19/h12-19H,1-9H2

>  <InChIKey>
HHKZCCWKTZRCCL-UHFFFAOYSA-N

>  <SMILES>
C(CNC(CO)(CO)CO)CNC(CO)(CO)CO

$$$$
