4BAH_MEL_B_1291
  RCSB PDB08012021123D
Coordinates from PDB:4BAH:B:1291 Model:1 without hydrogens
 31 33  0  0  0  0            999 V2000
   18.8170  -14.4230   24.3390   C 0  0  0  0  0  0  0  0  0  0  0  0
   19.0530  -15.7530   25.0720   C 0  0  0  0  0  0  0  0  0  0  0  0
   19.5190  -15.4480   26.5040   C 0  0  0  0  0  0  0  0  0  0  0  0
   20.8090  -14.6100   26.5010   C 0  0  0  0  0  0  0  0  0  0  0  0
   20.6120  -13.2860   25.7470   C 0  0  0  0  0  0  0  0  0  0  0  0
   20.1140  -13.5790   24.3180   C 0  0  0  0  0  0  0  0  0  0  0  0
   17.0340  -15.4950   22.9870   N 0  0  0  0  0  0  0  0  0  0  0  0
   18.2790  -14.6860   22.9180   C 0  0  0  0  0  0  0  0  0  0  0  0
   17.9420  -13.3730   22.2630   C 0  0  0  0  0  0  0  0  0  0  0  0
   16.8930  -12.8090   22.5600   O 0  0  0  0  0  0  0  0  0  0  0  0
   18.7350  -12.7990   21.3370   N 0  0  0  0  0  0  0  0  0  0  0  0
   18.5020  -11.6230   20.4940   C 0  0  0  0  0  0  0  0  0  0  0  0
   17.1070  -11.7900   19.9020   C 0  0  0  0  0  0  0  0  0  0  0  0
   16.7900  -12.8720   19.4230   O 0  0  0  0  0  0  0  0  0  0  0  0
   16.1760  -10.8150   20.0040   N 0  0  0  0  0  0  0  0  0  0  0  0
   14.8250  -11.0780   19.4730   C 0  0  0  0  0  0  0  0  0  0  0  0
   13.8440  -11.0140   20.6130   C 0  0  0  0  0  0  0  0  0  0  0  0
   13.4640  -12.1670   21.2840   C 0  0  0  0  0  0  0  0  0  0  0  0
   12.5810  -12.0810   22.3580   C 0  0  0  0  0  0  0  0  0  0  0  0
   12.0990  -10.8210   22.7640   C 0  0  0  0  0  0  0  0  0  0  0  0
   12.4940   -9.6610   22.0740   C 0  0  0  0  0  0  0  0  0  0  0  0
   13.3900   -9.7690   21.0310   C 0  0  0  0  0  0  0  0  0  0  0  0
   11.1190  -10.7320   23.8780   C 0  0  0  0  0  0  0  0  0  0  0  0
   10.8890   -9.5960   24.4700   N 0  0  0  0  0  0  0  0  0  0  0  0
   10.3990  -11.8540   24.2650   N 0  0  0  0  0  0  0  0  0  0  0  0
   19.6700  -12.0180   19.5700   C 0  0  0  0  0  0  0  0  0  0  0  0
   19.9900  -13.0980   20.6110   C 0  0  0  0  0  0  0  0  0  0  0  0
   16.3970  -15.8260   21.6860   C 0  0  0  0  0  0  0  0  0  0  0  0
   14.9890  -16.3550   21.8810   C 0  0  0  0  0  0  0  0  0  0  0  0
   14.5300  -16.5920   22.9810   O 0  0  0  0  0  0  0  0  0  0  0  0
   14.2300  -16.5970   20.8100   O 0  0  0  0  0  0  0  0  0  0  0  0
  1  2  1  0  0  0  0
  1  6  1  0  0  0  0
  1  8  1  0  0  0  0
  2  3  1  0  0  0  0
  3  4  1  0  0  0  0
  4  5  1  0  0  0  0
  5  6  1  0  0  0  0
  7  8  1  0  0  0  0
  7 28  1  0  0  0  0
  8  9  1  0  0  0  0
  9 10  2  0  0  0  0
  9 11  1  0  0  0  0
 11 12  1  0  0  0  0
 11 27  1  0  0  0  0
 12 13  1  0  0  0  0
 12 26  1  0  0  0  0
 13 14  2  0  0  0  0
 13 15  1  0  0  0  0
 15 16  1  0  0  0  0
 16 17  1  0  0  0  0
 17 18  2  0  0  0  0
 17 22  1  0  0  0  0
 18 19  1  0  0  0  0
 19 20  2  0  0  0  0
 20 21  1  0  0  0  0
 20 23  1  0  0  0  0
 21 22  2  0  0  0  0
 23 24  2  0  0  0  0
 23 25  1  0  0  0  0
 26 27  1  0  0  0  0
 28 29  1  0  0  0  0
 29 30  1  0  0  0  0
 29 31  2  0  0  0  0
M  END
>  <InstanceId>
4BAH_MEL_B_1291

>  <ChemCompId>
MEL

>  <PdbId>
4BAH

>  <ChainId>
B

>  <ResidueNumber>
1291

>  <InsertionCode>


>  <Model>
1

>  <AltIds>


>  <MissingHeavyAtoms>
0

>  <ObservedFormula>
C22 N5 O4

>  <Name>
[((1R)-2-{(2S)-2-[({4-[AMINO(IMINO)METHYL]BENZYL}AMINO)CARBONYL]AZETIDINYL}-1-CYCLOHEXYL-2-OXOETHYL)AMINO]ACETIC ACID

>  <SystematicName>
2-[[(1R)-2-[(2S)-2-[(4-carbamimidoylphenyl)methylcarbamoyl]azetidin-1-yl]-1-cyclohexyl-2-oxo-ethyl]amino]ethanoic acid

>  <Synonyms>
MELAGATRAN (ASTRA-ZENECA)

>  <Type>
NON-POLYMER

>  <Formula>
C22 H31 N5 O4

>  <MolecularWeight>
429.513

>  <ModifiedDate>
2020-06-17

>  <Parent>


>  <OneLetterCode>


>  <SubcomponentList>


>  <AmbiguousFlag>
N

>  <InChI>
InChI=1S/C22H31N5O4/c23-20(24)16-8-6-14(7-9-16)12-26-21(30)17-10-11-27(17)22(31)19(25-13-18(28)29)15-4-2-1-3-5-15/h6-9,15,17,19,25H,1-5,10-13H2,(H3,23,24)(H,26,30)(H,28,29)/t17-,19+/m0/s1

>  <InChIKey>
DKWNMCUOEDMMIN-PKOBYXMFSA-N

>  <SMILES>
c1cc(ccc1CNC(=O)[C@@H]2CCN2C(=O)[C@@H](C3CCCCC3)NCC(=O)O)C(=N)N

$$$$
