3RZ0_RZ0_B_1
  RCSB PDB08012020243D
Coordinates from PDB:3RZ0:B:1 Model:1 without hydrogens
 17 17  0  0  0  0            999 V2000
   15.3240    0.2730   16.9610   S 0  0  0  0  0  0  0  0  0  0  0  0
   18.4980    5.2960   13.4880   N 0  0  0  0  0  0  0  0  0  0  0  0
   16.6560    5.9550   13.6820   O 0  0  0  0  0  0  0  0  0  0  0  0
   16.9030    3.8300   14.8090   C 0  0  0  0  0  0  0  0  0  0  0  0
   17.2810    1.7410   15.9160   C 0  0  0  0  0  0  0  0  0  0  0  0
   17.8050    2.8440   15.2040   C 0  0  0  0  0  0  0  0  0  0  0  0
   15.9080    1.5890   16.1340   C 0  0  0  0  0  0  0  0  0  0  0  0
   15.5380    3.7430   15.0770   C 0  0  0  0  0  0  0  0  0  0  0  0
   15.0400    2.6120   15.7390   C 0  0  0  0  0  0  0  0  0  0  0  0
   17.3860    5.0480   14.0630   C 0  0  0  0  0  0  0  0  0  0  0  0
   19.8640    5.2350   13.2870   C 0  0  0  0  0  0  0  0  0  0  0  0
   13.8810    0.3040   16.8460   O 0  0  0  0  0  0  0  0  0  0  0  0
   20.0270    6.7430   13.1270   C 0  0  0  0  0  0  0  0  0  0  0  0
   15.8420    0.2550   18.2990   O 0  0  0  0  0  0  0  0  0  0  0  0
   19.7290    7.5190   14.4490   C 0  0  0  0  0  0  0  0  0  0  0  0
   15.8590   -1.0240   16.2840   N 0  0  0  0  0  0  0  0  0  0  0  0
   20.5120    8.8240   14.6280   C 0  0  0  0  0  0  0  0  0  0  0  0
  1 14  2  0  0  0  0
  2 10  1  0  0  0  0
  3 10  2  0  0  0  0
  4  8  2  0  0  0  0
  4  6  1  0  0  0  0
  5  7  1  0  0  0  0
  6  5  2  0  0  0  0
  7  1  1  0  0  0  0
  8  9  1  0  0  0  0
  9  7  2  0  0  0  0
 10  4  1  0  0  0  0
 11  2  1  0  0  0  0
 12  1  2  0  0  0  0
 13 11  1  0  0  0  0
 13 15  1  0  0  0  0
 15 17  1  0  0  0  0
 16  1  1  0  0  0  0
M  END
>  <InstanceId>
3RZ0_RZ0_B_1

>  <ChemCompId>
RZ0

>  <PdbId>
3RZ0

>  <ChainId>
B

>  <ResidueNumber>
1

>  <InsertionCode>


>  <Model>
1

>  <AltIds>


>  <MissingHeavyAtoms>
0

>  <ObservedFormula>
C11 N2 O3 S

>  <Name>
N-butyl-4-sulfamoylbenzamide

>  <SystematicName>
N-butyl-4-sulfamoyl-benzamide

>  <Synonyms>


>  <Type>
NON-POLYMER

>  <Formula>
C11 H16 N2 O3 S

>  <MolecularWeight>
256.321

>  <ModifiedDate>
2011-08-05

>  <Parent>


>  <OneLetterCode>


>  <SubcomponentList>


>  <AmbiguousFlag>
N

>  <InChI>
InChI=1S/C11H16N2O3S/c1-2-3-8-13-11(14)9-4-6-10(7-5-9)17(12,15)16/h4-7H,2-3,8H2,1H3,(H,13,14)(H2,12,15,16)

>  <InChIKey>
QBMVMGJMEIVTPO-UHFFFAOYSA-N

>  <SMILES>
CCCCNC(=O)c1ccc(cc1)S(=O)(=O)N

$$$$
