6AQS_IM5_A_302
  RCSB PDB08022003583D
Coordinates from PDB:6AQS:A:302 Model:1 without hydrogens
 20 22  0  0  0  0            999 V2000
   -5.5450   33.6540   10.6530   N 0  0  0  0  0  0  0  0  0  0  0  0
   -5.3220   33.5130   11.9900   C 0  0  0  0  0  0  0  0  0  0  0  0
   -5.1340   34.6430   12.7380   N 0  0  0  0  0  0  0  0  0  0  0  0
   -5.2910   32.2880   12.5990   N 0  0  0  0  0  0  0  0  0  0  0  0
   -5.4650   31.1720   11.8380   C 0  0  0  0  0  0  0  0  0  0  0  0
   -5.7100   31.2410   10.3910   C 0  0  0  0  0  0  0  0  0  0  0  0
   -5.7380   32.6080    9.8240   C 0  0  0  0  0  0  0  0  0  0  0  0
   -5.9390   32.7850    8.6100   O 0  0  0  0  0  0  0  0  0  0  0  0
   -5.8520   29.9820    9.9290   N 0  0  0  0  0  0  0  0  0  0  0  0
   -5.7300   29.0820   10.9440   C 0  0  0  0  0  0  0  0  0  0  0  0
   -5.5070   29.7280   12.1670   C 0  0  0  0  0  0  0  0  0  0  0  0
   -6.3570   28.8340   14.4680   N 0  0  0  0  0  0  0  0  0  0  0  0
   -5.2850   29.0190   13.4740   C 0  0  0  0  0  0  0  0  0  0  0  0
   -6.5490   30.0230   15.3230   C 0  0  0  0  0  0  0  0  0  0  0  0
   -7.9890   29.9020   15.8240   C 0  0  0  0  0  0  0  0  0  0  0  0
   -8.0530   29.2220   17.0850   O 0  0  0  0  0  0  0  0  0  0  0  0
   -8.7260   29.1390   14.7330   C 0  0  0  0  0  0  0  0  0  0  0  0
   -9.5430   30.0540   13.8320   C 0  0  0  0  0  0  0  0  0  0  0  0
  -10.0670   29.2970   12.7270   O 0  0  0  0  0  0  0  0  0  0  0  0
   -7.6610   28.4040   13.9150   C 0  0  0  0  0  0  0  0  0  0  0  0
  2  1  1  0  0  0  0
  1  7  1  0  0  0  0
  3  2  1  0  0  0  0
  4  2  2  0  0  0  0
  4  5  1  0  0  0  0
 11  5  1  0  0  0  0
  5  6  2  0  0  0  0
  6  9  1  0  0  0  0
  6  7  1  0  0  0  0
  7  8  2  0  0  0  0
 10  9  1  0  0  0  0
 11 10  2  0  0  0  0
 13 11  1  0  0  0  0
 13 12  1  0  0  0  0
 12 14  1  0  0  0  0
 12 20  1  0  0  0  0
 14 15  1  0  0  0  0
 16 15  1  0  0  0  0
 15 17  1  0  0  0  0
 20 17  1  0  0  0  0
 17 18  1  0  0  0  0
 18 19  1  0  0  0  0
M  END
>  <InstanceId>
6AQS_IM5_A_302

>  <ChemCompId>
IM5

>  <PdbId>
6AQS

>  <ChainId>
A

>  <ResidueNumber>
302

>  <InsertionCode>


>  <Model>
1

>  <AltIds>


>  <MissingHeavyAtoms>
0

>  <ObservedFormula>
C12 N5 O3

>  <Name>
2-amino-7-{[(3R,4R)-3-hydroxy-4-(hydroxymethyl)pyrrolidin-1-yl]methyl}-3,5-dihydro-4H-pyrrolo[3,2-d]pyrimidin-4-one

>  <SystematicName>
2-azanyl-7-[[(3R,4R)-3-(hydroxymethyl)-4-oxidanyl-pyrrolidin-1-yl]methyl]-3,5-dihydropyrrolo[3,2-d]pyrimidin-4-one

>  <Synonyms>
DADMe-ImmG

>  <Type>
NON-POLYMER

>  <Formula>
C12 H17 N5 O3

>  <MolecularWeight>
279.295

>  <ModifiedDate>
2020-06-17

>  <Parent>


>  <OneLetterCode>


>  <SubcomponentList>


>  <AmbiguousFlag>
N

>  <InChI>
InChI=1S/C12H17N5O3/c13-12-15-9-6(1-14-10(9)11(20)16-12)2-17-3-7(5-18)8(19)4-17/h1,7-8,14,18-19H,2-5H2,(H3,13,15,16,20)/t7-,8+/m1/s1

>  <InChIKey>
GSPTUGDLYPMLCQ-SFYZADRCSA-N

>  <SMILES>
c1c(c2c([nH]1)C(=O)NC(=N2)N)CN3C[C@@H]([C@H](C3)O)CO

$$$$
