1V2K_ZEN_T_1
  RCSB PDB08012016083D
Coordinates from PDB:1V2K:T:1 Model:1 without hydrogens
 34 38  0  0  0  0            999 V2000
   43.1280   73.1170  -26.4980   N 0  0  0  0  0  0  0  0  0  0  0  0
   43.5910   74.3980  -26.2910   C 0  0  0  0  0  0  0  0  0  0  0  0
   44.8300   74.8050  -26.8640   C 0  0  0  0  0  0  0  0  0  0  0  0
   45.0600   72.5410  -27.8450   C 0  0  0  0  0  0  0  0  0  0  0  0
   43.8210   72.1970  -27.2470   C 0  0  0  0  0  0  0  0  0  0  0  0
   45.5820   73.8620  -27.6580   C 0  0  0  0  0  0  0  0  0  0  0  0
   46.8470   74.2480  -28.2620   N 0  0  0  0  0  0  0  0  0  0  0  0
   47.5370   75.5460  -27.9140   C 0  0  0  0  0  0  0  0  0  0  0  0
   49.0340   75.3080  -27.5470   C 0  0  0  0  0  0  0  0  0  0  0  0
   49.0580   73.2220  -28.9890   C 0  0  0  0  0  0  0  0  0  0  0  0
   47.5430   73.3730  -29.2840   C 0  0  0  0  0  0  0  0  0  0  0  0
   49.7580   74.6160  -28.7490   C 0  0  0  0  0  0  0  0  0  0  0  0
   51.2490   74.3430  -28.4810   C 0  0  0  0  0  0  0  0  0  0  0  0
   51.5450   74.1550  -27.2790   O 0  0  0  0  0  0  0  0  0  0  0  0
   52.1920   74.2970  -29.4460   N 0  0  0  0  0  0  0  0  0  0  0  0
   51.9140   74.5270  -30.9120   C 0  0  0  0  0  0  0  0  0  0  0  0
   52.5270   73.3440  -31.7140   C 0  0  0  0  0  0  0  0  0  0  0  0
   54.1010   72.7510  -29.8730   C 0  0  0  0  0  0  0  0  0  0  0  0
   53.6210   74.0120  -29.0850   C 0  0  0  0  0  0  0  0  0  0  0  0
   53.9560   73.0930  -31.3260   N 0  0  0  0  0  0  0  0  0  0  0  0
   54.6690   71.9940  -32.3400   S 0  0  0  0  0  0  0  0  0  0  0  0
   56.0380   71.7780  -31.9090   O 0  0  0  0  0  0  0  0  0  0  0  0
   54.5250   72.5550  -33.6590   O 0  0  0  0  0  0  0  0  0  0  0  0
   53.8130   70.4190  -32.3510   C 0  0  0  0  0  0  0  0  0  0  0  0
   54.0640   69.4100  -31.3460   C 0  0  0  0  0  0  0  0  0  0  0  0
   52.8090   70.1820  -33.3520   C 0  0  0  0  0  0  0  0  0  0  0  0
   52.0750   68.9710  -33.3810   C 0  0  0  0  0  0  0  0  0  0  0  0
   53.3290   68.1800  -31.3660   C 0  0  0  0  0  0  0  0  0  0  0  0
   52.3210   67.9720  -32.4030   C 0  0  0  0  0  0  0  0  0  0  0  0
   51.5920   66.7890  -32.4310   C 0  0  0  0  0  0  0  0  0  0  0  0
   52.8000   65.9530  -30.4350   C 0  0  0  0  0  0  0  0  0  0  0  0
   53.5580   67.1580  -30.3880   C 0  0  0  0  0  0  0  0  0  0  0  0
   51.8150   65.7820  -31.4640   C 0  0  0  0  0  0  0  0  0  0  0  0
   50.8670   64.3550  -31.5640  Cl 0  0  0  0  0  0  0  0  0  0  0  0
  1  2  2  0  0  0  0
  1  5  1  0  0  0  0
  2  3  1  0  0  0  0
  3  6  2  0  0  0  0
  4  5  2  0  0  0  0
  4  6  1  0  0  0  0
  6  7  1  0  0  0  0
  7  8  1  0  0  0  0
  7 11  1  0  0  0  0
  8  9  1  0  0  0  0
  9 12  1  0  0  0  0
 10 11  1  0  0  0  0
 10 12  1  0  0  0  0
 12 13  1  0  0  0  0
 13 14  2  0  0  0  0
 13 15  1  0  0  0  0
 15 16  1  0  0  0  0
 15 19  1  0  0  0  0
 16 17  1  0  0  0  0
 17 20  1  0  0  0  0
 18 19  1  0  0  0  0
 18 20  1  0  0  0  0
 20 21  1  0  0  0  0
 21 22  2  0  0  0  0
 21 23  2  0  0  0  0
 21 24  1  0  0  0  0
 24 25  2  0  0  0  0
 24 26  1  0  0  0  0
 25 28  1  0  0  0  0
 26 27  2  0  0  0  0
 27 29  1  0  0  0  0
 28 29  2  0  0  0  0
 28 32  1  0  0  0  0
 29 30  1  0  0  0  0
 30 33  2  0  0  0  0
 31 32  2  0  0  0  0
 31 33  1  0  0  0  0
 33 34  1  0  0  0  0
M  END
>  <InstanceId>
1V2K_ZEN_T_1

>  <ChemCompId>
ZEN

>  <PdbId>
1V2K

>  <ChainId>
T

>  <ResidueNumber>
1

>  <InsertionCode>


>  <Model>
1

>  <AltIds>


>  <MissingHeavyAtoms>
0

>  <ObservedFormula>
C25 N4 O3 S Cl

>  <Name>
[4-(6-CHLORO-NAPHTHALENE-2-SULFONYL)-PIPERAZIN-1-YL]- (3,4,5,6-TETRAHYDRO-2H-[1,4']BIPYRIDINYL-4-YL)- METHANONE

>  <SystematicName>
[4-(6-chloronaphthalen-2-yl)sulfonylpiperazin-1-yl]-(1-pyridin-4-ylpiperidin-4-yl)methanone

>  <Synonyms>


>  <Type>
NON-POLYMER

>  <Formula>
C25 H27 Cl N4 O3 S

>  <MolecularWeight>
499.025

>  <ModifiedDate>
2011-06-04

>  <Parent>


>  <OneLetterCode>


>  <SubcomponentList>


>  <AmbiguousFlag>
N

>  <InChI>
InChI=1S/C25H27ClN4O3S/c26-22-3-1-21-18-24(4-2-20(21)17-22)34(32,33)30-15-13-29(14-16-30)25(31)19-7-11-28(12-8-19)23-5-9-27-10-6-23/h1-6,9-10,17-19H,7-8,11-16H2

>  <InChIKey>
ZLAKCKVFSRSENR-UHFFFAOYSA-N

>  <SMILES>
c1cc(cc2c1cc(cc2)Cl)S(=O)(=O)N3CCN(CC3)C(=O)C4CCN(CC4)c5ccncc5

$$$$
