2QMG_SC6_A_1
  RCSB PDB08012017503D
Coordinates from PDB:2QMG:A:1 Model:1 without hydrogens
 44 48  0  0  0  0            999 V2000
   26.8950   15.4300   24.6060   C 0  0  0  0  0  0  0  0  0  0  0  0
   25.6140   15.8480   25.0530   C 0  0  0  0  0  0  0  0  0  0  0  0
   24.4680   15.0650   24.7210   C 0  0  0  0  0  0  0  0  0  0  0  0
   24.6020   13.8730   23.9460   C 0  0  0  0  0  0  0  0  0  0  0  0
   25.8780   13.4800   23.5200   C 0  0  0  0  0  0  0  0  0  0  0  0
   27.0340   14.2440   23.8330   C 0  0  0  0  0  0  0  0  0  0  0  0
   28.3630   13.7810   23.3640   C 0  0  0  0  0  0  0  0  0  0  0  0
   28.5850   13.5240   21.9940   N 0  0  0  0  0  0  0  0  0  0  0  0
   29.2740   13.6040   24.1700   O 0  0  0  0  0  0  0  0  0  0  0  0
   27.6480   13.6690   20.8640   C 0  0  0  0  0  0  0  0  0  0  0  0
   28.5730   14.2600   19.7950   C 0  0  0  0  0  0  0  0  0  0  0  0
   29.9380   13.5950   20.0480   C 0  0  0  0  0  0  0  0  0  0  0  0
   29.8790   13.0510   21.4890   C 0  0  0  0  0  0  0  0  0  0  0  0
   29.9180   11.4990   21.4840   C 0  0  0  0  0  0  0  0  0  0  0  0
   25.4770   17.1080   25.8680   C 0  0  0  0  0  0  0  0  0  0  0  0
   23.4140   13.0730   23.6040   C 0  0  0  0  0  0  0  0  0  0  0  0
   23.6280   11.7170   23.4740   N 0  0  0  0  0  0  0  0  0  0  0  0
   22.3000   13.5750   23.4400   O 0  0  0  0  0  0  0  0  0  0  0  0
   22.5560   10.7510   23.1270   C 0  0  0  0  0  0  0  0  0  0  0  0
   22.1050    9.9200   24.3510   C 0  0  0  0  0  0  0  0  0  0  0  0
   23.0700    9.8210   22.0060   C 0  0  0  0  0  0  0  0  0  0  0  0
   21.0380    9.0950   23.9460   O 0  0  0  0  0  0  0  0  0  0  0  0
   23.7320   10.5240   20.8460   C 0  0  0  0  0  0  0  0  0  0  0  0
   25.0800   10.2200   20.5160   C 0  0  0  0  0  0  0  0  0  0  0  0
   25.6970   10.8750   19.4300   C 0  0  0  0  0  0  0  0  0  0  0  0
   25.0260   11.8350   18.6460   C 0  0  0  0  0  0  0  0  0  0  0  0
   23.6860   12.1280   18.9880   C 0  0  0  0  0  0  0  0  0  0  0  0
   23.0280   11.4950   20.0680   C 0  0  0  0  0  0  0  0  0  0  0  0
   26.9600   10.5720   19.1390   F 0  0  0  0  0  0  0  0  0  0  0  0
   23.0270   13.0290   18.2670   F 0  0  0  0  0  0  0  0  0  0  0  0
   19.4600   11.4820   26.4880   C 0  0  0  0  0  0  0  0  0  0  0  0
   20.3570   10.7930   27.5050   C 0  0  0  0  0  0  0  0  0  0  0  0
   21.1720    9.8980   26.6800   N 0  0  0  0  0  0  0  0  0  0  0  0
   20.3960   11.6660   25.2810   C 0  0  0  0  0  0  0  0  0  0  0  0
   21.6090   10.7520   25.5660   C 0  0  0  0  0  0  0  0  0  0  0  0
   18.3940   10.5660   26.2380   O 0  0  0  0  0  0  0  0  0  0  0  0
   17.4160   10.8750   25.2760   C 0  0  0  0  0  0  0  0  0  0  0  0
   16.9480   12.1890   24.9230   C 0  0  0  0  0  0  0  0  0  0  0  0
   15.9540   12.3440   23.9290   C 0  0  0  0  0  0  0  0  0  0  0  0
   15.4200   11.2040   23.2780   C 0  0  0  0  0  0  0  0  0  0  0  0
   15.8810    9.9120   23.6250   C 0  0  0  0  0  0  0  0  0  0  0  0
   16.8730    9.7540   24.6170   C 0  0  0  0  0  0  0  0  0  0  0  0
   29.4570    9.5810   22.8470   C 0  0  0  0  0  0  0  0  0  0  0  0
   29.6270   10.9820   22.7780   O 0  0  0  0  0  0  0  0  0  0  0  0
  1  6  1  0  0  0  0
  1  2  2  0  0  0  0
  2  3  1  0  0  0  0
  2 15  1  0  0  0  0
  3  4  2  0  0  0  0
  4  5  1  0  0  0  0
  4 16  1  0  0  0  0
  5  6  2  0  0  0  0
  6  7  1  0  0  0  0
  7  8  1  0  0  0  0
  7  9  2  0  0  0  0
  8 10  1  0  0  0  0
  8 13  1  0  0  0  0
 10 11  1  0  0  0  0
 11 12  1  0  0  0  0
 12 13  1  0  0  0  0
 13 14  1  0  0  0  0
 14 44  1  0  0  0  0
 16 18  2  0  0  0  0
 16 17  1  0  0  0  0
 17 19  1  0  0  0  0
 19 21  1  0  0  0  0
 19 20  1  0  0  0  0
 20 22  1  0  0  0  0
 20 35  1  0  0  0  0
 21 23  1  0  0  0  0
 23 28  2  0  0  0  0
 23 24  1  0  0  0  0
 24 25  2  0  0  0  0
 25 26  1  0  0  0  0
 25 29  1  0  0  0  0
 26 27  2  0  0  0  0
 27 30  1  0  0  0  0
 27 28  1  0  0  0  0
 31 34  1  0  0  0  0
 31 36  1  0  0  0  0
 31 32  1  0  0  0  0
 32 33  1  0  0  0  0
 33 35  1  0  0  0  0
 34 35  1  0  0  0  0
 36 37  1  0  0  0  0
 37 42  2  0  0  0  0
 37 38  1  0  0  0  0
 38 39  2  0  0  0  0
 39 40  1  0  0  0  0
 40 41  2  0  0  0  0
 41 42  1  0  0  0  0
 43 44  1  0  0  0  0
M  END
>  <InstanceId>
2QMG_SC6_A_1

>  <ChemCompId>
SC6

>  <PdbId>
2QMG

>  <ChainId>
A

>  <ResidueNumber>
1

>  <InsertionCode>


>  <Model>
1

>  <AltIds>


>  <MissingHeavyAtoms>
0

>  <ObservedFormula>
C34 N3 O5 F2

>  <Name>
N-{(1S,2R)-1-(3,5-DIFLUOROBENZYL)-2-HYDROXY-2-[(2R,4R)-4-PHENOXYPYRROLIDIN-2-YL]ETHYL}-3-{[(2R)-2-(METHOXYMETHYL)PYRROLIDIN-1-YL]CARBONYL}-5-METHYLBENZAMIDE

>  <SystematicName>
N-[(1R,2S)-3-(3,5-difluorophenyl)-1-hydroxy-1-[(2R,4R)-4-phenoxypyrrolidin-2-yl]propan-2-yl]-3-[(2R)-2-(methoxymethyl)pyrrolidin-1-yl]carbonyl-5-methyl-benzamide

>  <Synonyms>


>  <Type>
NON-POLYMER

>  <Formula>
C34 H39 F2 N3 O5

>  <MolecularWeight>
607.687

>  <ModifiedDate>
2011-06-04

>  <Parent>


>  <OneLetterCode>


>  <SubcomponentList>


>  <AmbiguousFlag>


>  <InChI>
InChI=1S/C34H39F2N3O5/c1-21-11-23(16-24(12-21)34(42)39-10-6-7-27(39)20-43-2)33(41)38-31(15-22-13-25(35)17-26(36)14-22)32(40)30-18-29(19-37-30)44-28-8-4-3-5-9-28/h3-5,8-9,11-14,16-17,27,29-32,37,40H,6-7,10,15,18-20H2,1-2H3,(H,38,41)/t27-,29-,30-,31+,32-/m1/s1

>  <InChIKey>
KYHYNSQLYDXSNK-MXWGZHRFSA-N

>  <SMILES>
Cc1cc(cc(c1)C(=O)N2CCC[C@@H]2COC)C(=O)N[C@@H](Cc3cc(cc(c3)F)F)[C@@H]([C@H]4C[C@H](CN4)Oc5ccccc5)O

$$$$
