6CKR_F5V_A_201
  RCSB PDB08022004153D
Coordinates from PDB:6CKR:A:201 Model:1 without hydrogens
 29 32  0  0  0  0            999 V2000
   12.2080  -13.3290  -12.0920   C 0  0  0  0  0  0  0  0  0  0  0  0
   11.0630  -12.5790  -11.4500   N 0  0  0  0  0  0  0  0  0  0  0  0
   11.1070  -11.6960  -10.4380   C 0  0  0  0  0  0  0  0  0  0  0  0
    9.8020  -12.6930  -11.9290   N 0  0  0  0  0  0  0  0  0  0  0  0
    9.0680  -11.8900  -11.1480   C 0  0  0  0  0  0  0  0  0  0  0  0
    9.8490  -11.2720  -10.2270   C 0  0  0  0  0  0  0  0  0  0  0  0
    9.3990  -10.3770   -9.2650   C 0  0  0  0  0  0  0  0  0  0  0  0
    8.0260  -10.0760   -9.1310   C 0  0  0  0  0  0  0  0  0  0  0  0
    7.5290   -9.1520   -8.1640   C 0  0  0  0  0  0  0  0  0  0  0  0
   10.2720   -9.7080   -8.3860   C 0  0  0  0  0  0  0  0  0  0  0  0
    9.8590   -8.8270   -7.3700   C 0  0  0  0  0  0  0  0  0  0  0  0
    8.4640   -8.5210   -7.2670   C 0  0  0  0  0  0  0  0  0  0  0  0
    7.9780   -7.6200   -6.2610   C 0  0  0  0  0  0  0  0  0  0  0  0
    8.7240   -7.0230   -5.4810   O 0  0  0  0  0  0  0  0  0  0  0  0
    6.6360   -7.3470   -6.1510   N 0  0  0  0  0  0  0  0  0  0  0  0
    6.1240   -6.4620   -5.1330   C 0  0  0  0  0  0  0  0  0  0  0  0
    5.7300   -8.0030   -7.0130   C 0  0  0  0  0  0  0  0  0  0  0  0
    6.1340   -8.8680   -8.0050   C 0  0  0  0  0  0  0  0  0  0  0  0
    5.0880   -9.4290   -8.8450   C 0  0  0  0  0  0  0  0  0  0  0  0
    3.9820  -10.0900   -8.2780   C 0  0  0  0  0  0  0  0  0  0  0  0
    5.1880   -9.2970  -10.2720   C 0  0  0  0  0  0  0  0  0  0  0  0
    4.1720   -9.8310  -11.1190   C 0  0  0  0  0  0  0  0  0  0  0  0
    3.0430  -10.5020  -10.5740   C 0  0  0  0  0  0  0  0  0  0  0  0
    2.9290  -10.6230   -9.1520   C 0  0  0  0  0  0  0  0  0  0  0  0
    1.8180  -11.2870   -8.7260   N 0  0  0  0  0  0  0  0  0  0  0  0
    1.5110  -11.4720   -7.1450   S 0  0  0  0  0  0  0  0  0  0  0  0
    0.3640  -12.4680   -7.1050   O 0  0  0  0  0  0  0  0  0  0  0  0
    2.6760  -12.0220   -6.4280   O 0  0  0  0  0  0  0  0  0  0  0  0
    1.0350   -9.8710   -6.5070   C 0  0  0  0  0  0  0  0  0  0  0  0
  1  2  1  0  0  0  0
  4  2  1  0  0  0  0
  4  5  2  0  0  0  0
  2  3  1  0  0  0  0
  5  6  1  0  0  0  0
 22 23  2  0  0  0  0
 22 21  1  0  0  0  0
 23 24  1  0  0  0  0
  3  6  2  0  0  0  0
 21 19  2  0  0  0  0
  6  7  1  0  0  0  0
  7  8  2  0  0  0  0
  7 10  1  0  0  0  0
 24 25  1  0  0  0  0
 24 20  2  0  0  0  0
  8  9  1  0  0  0  0
 19 20  1  0  0  0  0
 19 18  1  0  0  0  0
 25 26  1  0  0  0  0
 10 11  2  0  0  0  0
  9 18  1  0  0  0  0
  9 12  2  0  0  0  0
 18 17  2  0  0  0  0
 11 12  1  0  0  0  0
 12 13  1  0  0  0  0
 26 27  2  0  0  0  0
 26 29  1  0  0  0  0
 26 28  2  0  0  0  0
 17 15  1  0  0  0  0
 13 15  1  0  0  0  0
 13 14  2  0  0  0  0
 15 16  1  0  0  0  0
M  END
>  <InstanceId>
6CKR_F5V_A_201

>  <ChemCompId>
F5V

>  <PdbId>
6CKR

>  <ChainId>
A

>  <ResidueNumber>
201

>  <InsertionCode>


>  <Model>
1

>  <AltIds>


>  <MissingHeavyAtoms>
0

>  <ObservedFormula>
C21 N4 O3 S

>  <Name>
N-{3-[2-methyl-6-(1-methyl-1H-pyrazol-4-yl)-1-oxo-1,2-dihydroisoquinolin-4-yl]phenyl}methanesulfonamide

>  <SystematicName>
~{N}-[3-[2-methyl-6-(1-methylpyrazol-4-yl)-1-oxidanylidene-isoquinolin-4-yl]phenyl]methanesulfonamide

>  <Synonyms>


>  <Type>
NON-POLYMER

>  <Formula>
C21 H20 N4 O3 S

>  <MolecularWeight>
408.474

>  <ModifiedDate>
2018-04-27

>  <Parent>


>  <OneLetterCode>


>  <SubcomponentList>


>  <AmbiguousFlag>
N

>  <InChI>
InChI=1S/C21H20N4O3S/c1-24-13-20(15-5-4-6-17(9-15)23-29(3,27)28)19-10-14(7-8-18(19)21(24)26)16-11-22-25(2)12-16/h4-13,23H,1-3H3

>  <InChIKey>
XUAJCFLNMSRSIO-UHFFFAOYSA-N

>  <SMILES>
Cn1cc(cn1)c2ccc3c(c2)C(=CN(C3=O)C)c4cccc(c4)NS(=O)(=O)C

$$$$
