4E70_N7I_A_403
  RCSB PDB08012021343D
Coordinates from PDB:4E70:A:403 Model:1 without hydrogens
 13 13  0  0  0  0            999 V2000
   12.3290  -19.4400  -42.2950   C 0  0  0  0  0  0  0  0  0  0  0  0
   14.0470  -17.7590  -46.9590   O 0  0  0  0  0  0  0  0  0  0  0  0
   15.8750  -16.6120  -40.0650   C 0  0  0  0  0  0  0  0  0  0  0  0
   12.9040  -18.9510  -38.6840   O 0  0  0  0  0  0  0  0  0  0  0  0
   12.1560  -19.5850  -40.9210   C 0  0  0  0  0  0  0  0  0  0  0  0
   14.7620  -17.3980  -39.6310   O 0  0  0  0  0  0  0  0  0  0  0  0
   13.0020  -18.8750  -40.0190   C 0  0  0  0  0  0  0  0  0  0  0  0
   14.0290  -18.0140  -40.5620   C 0  0  0  0  0  0  0  0  0  0  0  0
   14.1710  -17.8830  -41.9340   C 0  0  0  0  0  0  0  0  0  0  0  0
   13.3340  -18.6050  -42.8310   C 0  0  0  0  0  0  0  0  0  0  0  0
   13.5290  -18.4040  -44.3020   C 0  0  0  0  0  0  0  0  0  0  0  0
   13.0880  -19.1810  -45.2690   C 0  0  0  0  0  0  0  0  0  0  0  0
   13.2890  -18.9100  -46.7580   C 0  0  0  0  0  0  0  0  0  0  0  0
  1  5  2  0  0  0  0
  1 10  1  0  0  0  0
  2 13  1  0  0  0  0
  3  6  1  0  0  0  0
  4  7  1  0  0  0  0
  5  7  1  0  0  0  0
  6  8  1  0  0  0  0
  7  8  2  0  0  0  0
  8  9  1  0  0  0  0
  9 10  2  0  0  0  0
 10 11  1  0  0  0  0
 11 12  2  0  0  0  0
 12 13  1  0  0  0  0
M  END
>  <InstanceId>
4E70_N7I_A_403

>  <ChemCompId>
N7I

>  <PdbId>
4E70

>  <ChainId>
A

>  <ResidueNumber>
403

>  <InsertionCode>


>  <Model>
1

>  <AltIds>


>  <MissingHeavyAtoms>
0

>  <ObservedFormula>
C10 O3

>  <Name>
4-[(1E)-3-hydroxyprop-1-en-1-yl]-2-methoxyphenol

>  <SystematicName>
4-[(E)-3-hydroxyprop-1-enyl]-2-methoxy-phenol

>  <Synonyms>
Coniferyl alcohol

>  <Type>
NON-POLYMER

>  <Formula>
C10 H12 O3

>  <MolecularWeight>
180.2

>  <ModifiedDate>
2012-08-24

>  <Parent>


>  <OneLetterCode>


>  <SubcomponentList>


>  <AmbiguousFlag>
N

>  <InChI>
InChI=1S/C10H12O3/c1-13-10-7-8(3-2-6-11)4-5-9(10)12/h2-5,7,11-12H,6H2,1H3/b3-2+

>  <InChIKey>
JMFRWRFFLBVWSI-NSCUHMNNSA-N

>  <SMILES>
COc1cc(ccc1O)/C=C/CO

$$$$
