2W8J_PLS_A_1420
  RCSB PDB08012018063D
Coordinates from PDB:2W8J:A:1420 Model:1 without hydrogens
 22 22  0  0  0  0            999 V2000
    6.3160   15.9230   33.4680   N 0  0  0  0  0  0  0  0  0  0  0  0
    5.1820   16.5490   34.1570   C 0  0  0  0  0  0  0  0  0  0  0  0
    4.2160   17.2670   33.2110   C 0  0  0  0  0  0  0  0  0  0  0  0
    4.8560   18.3710   32.5650   O 0  0  0  0  0  0  0  0  0  0  0  0
    4.4120   15.4700   34.9000   C 0  0  0  0  0  0  0  0  0  0  0  0
    4.6930   14.2550   34.7730   O 0  0  0  0  0  0  0  0  0  0  0  0
    3.5020   15.8120   35.6900   O 0  0  0  0  0  0  0  0  0  0  0  0
    9.7050   13.6330   30.4760   N 0  0  0  0  0  0  0  0  0  0  0  0
    9.7350   13.8670   31.7970   C 0  0  0  0  0  0  0  0  0  0  0  0
   10.9440   13.3940   32.5760   C 0  0  0  0  0  0  0  0  0  0  0  0
    8.6740   14.5310   32.4040   C 0  0  0  0  0  0  0  0  0  0  0  0
    8.7250   14.7530   33.7480   O 0  0  0  0  0  0  0  0  0  0  0  0
    7.5730   14.9430   31.6420   C 0  0  0  0  0  0  0  0  0  0  0  0
    6.3960   15.6400   32.2360   C 0  0  0  0  0  0  0  0  0  0  0  0
    7.5860   14.6810   30.2720   C 0  0  0  0  0  0  0  0  0  0  0  0
    8.6770   14.0280   29.7160   C 0  0  0  0  0  0  0  0  0  0  0  0
    6.4520   15.0800   29.3570   C 0  0  0  0  0  0  0  0  0  0  0  0
    6.5740   16.4600   28.9970   O 0  0  0  0  0  0  0  0  0  0  0  0
    5.2770   17.4160   28.8250   P 0  0  0  0  0  0  0  0  0  0  0  0
    4.7040   17.5740   30.2020   O 0  0  0  0  0  0  0  0  0  0  0  0
    4.3870   16.6870   27.8560   O 0  0  0  0  0  0  0  0  0  0  0  0
    5.8790   18.6900   28.3170   O 0  0  0  0  0  0  0  0  0  0  0  0
  1  2  1  0  0  0  0
  1 14  1  0  0  0  0
  2  3  1  0  0  0  0
  2  5  1  0  0  0  0
  3  4  1  0  0  0  0
  5  6  2  0  0  0  0
  5  7  1  0  0  0  0
  8  9  2  0  0  0  0
  8 16  1  0  0  0  0
  9 10  1  0  0  0  0
  9 11  1  0  0  0  0
 11 12  1  0  0  0  0
 11 13  2  0  0  0  0
 13 14  1  0  0  0  0
 13 15  1  0  0  0  0
 15 16  2  0  0  0  0
 15 17  1  0  0  0  0
 17 18  1  0  0  0  0
 18 19  1  0  0  0  0
 19 20  2  0  0  0  0
 19 21  1  0  0  0  0
 19 22  1  0  0  0  0
M  END
>  <InstanceId>
2W8J_PLS_A_1420

>  <ChemCompId>
PLS

>  <PdbId>
2W8J

>  <ChainId>
A

>  <ResidueNumber>
1420

>  <InsertionCode>


>  <Model>
1

>  <AltIds>


>  <MissingHeavyAtoms>
0

>  <ObservedFormula>
C11 N2 O8 P

>  <Name>
[3-HYDROXY-2-METHYL-5-PHOSPHONOOXYMETHYL-PYRIDIN-4-YLMETHYL]-SERINE

>  <SystematicName>
(2S)-3-hydroxy-2-[[3-hydroxy-2-methyl-5-(phosphonooxymethyl)pyridin-4-yl]methylamino]propanoic acid

>  <Synonyms>
PYRIDOXYL-SERINE-5-MONOPHOSPHATE

>  <Type>
NON-POLYMER

>  <Formula>
C11 H17 N2 O8 P

>  <MolecularWeight>
336.235

>  <ModifiedDate>
2020-06-17

>  <Parent>


>  <OneLetterCode>


>  <SubcomponentList>


>  <AmbiguousFlag>
N

>  <InChI>
InChI=1S/C11H17N2O8P/c1-6-10(15)8(3-13-9(4-14)11(16)17)7(2-12-6)5-21-22(18,19)20/h2,9,13-15H,3-5H2,1H3,(H,16,17)(H2,18,19,20)/t9-/m0/s1

>  <InChIKey>
ODVKKQWXKRZJLG-VIFPVBQESA-N

>  <SMILES>
Cc1c(c(c(cn1)COP(=O)(O)O)CN[C@@H](CO)C(=O)O)O

$$$$
