5ZAJ_32I_U_301
  RCSB PDB08022003493D
Coordinates from PDB:5ZAJ:U:301 Model:1 without hydrogens
 30 32  0  0  0  0            999 V2000
  -26.0530  -15.0730   -1.4880   N 0  0  0  0  0  0  0  0  0  0  0  0
  -30.2820  -18.6530   -4.6820   O 0  0  0  0  0  0  0  0  0  0  0  0
  -30.1670  -18.4810   -3.4760   C 0  0  0  0  0  0  0  0  0  0  0  0
  -30.9930  -18.9870   -2.5480   N 0  0  0  0  0  0  0  0  0  0  0  0
  -31.9420  -19.8960   -2.7500   C 0  0  0  0  0  0  0  0  0  0  0  0
  -32.1420  -20.3750   -3.8960   N 0  0  0  0  0  0  0  0  0  0  0  0
  -32.6850  -20.2630   -1.7140   N 0  0  0  0  0  0  0  0  0  0  0  0
  -29.0780  -17.5980   -2.9630   C 0  0  0  0  0  0  0  0  0  0  0  0
  -28.8930  -17.5280   -1.6260   N 0  0  0  0  0  0  0  0  0  0  0  0
  -27.9360  -16.7490   -1.0680   C 0  0  0  0  0  0  0  0  0  0  0  0
  -27.9450  -16.8530    0.4210   C 0  0  0  0  0  0  0  0  0  0  0  0
  -28.8800  -16.0930    1.1320   C 0  0  0  0  0  0  0  0  0  0  0  0
  -27.0870  -17.6920    1.1310   C 0  0  0  0  0  0  0  0  0  0  0  0
  -26.1480  -18.4710    0.5050   O 0  0  0  0  0  0  0  0  0  0  0  0
  -25.1530  -19.1800    1.2530   C 0  0  0  0  0  0  0  0  0  0  0  0
  -27.1780  -17.7310    2.4820   N 0  0  0  0  0  0  0  0  0  0  0  0
  -28.0810  -16.9850    3.1560   C 0  0  0  0  0  0  0  0  0  0  0  0
  -28.9340  -16.1670    2.4790   N 0  0  0  0  0  0  0  0  0  0  0  0
  -28.0950  -17.0820    4.5230   O 0  0  0  0  0  0  0  0  0  0  0  0
  -29.2540  -17.4040    5.2880   C 0  0  0  0  0  0  0  0  0  0  0  0
  -28.2750  -16.8350   -3.7980   C 0  0  0  0  0  0  0  0  0  0  0  0
  -28.4430  -16.8710   -5.1390   N 0  0  0  0  0  0  0  0  0  0  0  0
  -27.3220  -16.0470   -3.2500   N 0  0  0  0  0  0  0  0  0  0  0  0
  -27.1020  -15.9560   -1.8960   C 0  0  0  0  0  0  0  0  0  0  0  0
  -25.6650  -14.8370   -0.0810   C 0  0  0  0  0  0  0  0  0  0  0  0
  -25.2020  -13.4010    0.1890   C 0  0  0  0  0  0  0  0  0  0  0  0
  -25.2910  -14.3480   -2.5230   C 0  0  0  0  0  0  0  0  0  0  0  0
  -25.7490  -12.8880   -2.6260   C 0  0  0  0  0  0  0  0  0  0  0  0
  -26.7930  -12.4290   -1.6020   C 0  0  0  0  0  0  0  0  0  0  0  0
  -26.2620  -12.3610   -0.1700   C 0  0  0  0  0  0  0  0  0  0  0  0
 22 21  1  0  0  0  0
  2  3  2  0  0  0  0
  6  5  2  0  0  0  0
 21 23  2  0  0  0  0
 21  8  1  0  0  0  0
  3  8  1  0  0  0  0
  3  4  1  0  0  0  0
 23 24  1  0  0  0  0
  8  9  2  0  0  0  0
  5  4  1  0  0  0  0
  5  7  1  0  0  0  0
 28 27  1  0  0  0  0
 28 29  1  0  0  0  0
 27  1  1  0  0  0  0
 24  1  1  0  0  0  0
 24 10  2  0  0  0  0
  9 10  1  0  0  0  0
 29 30  1  0  0  0  0
  1 25  1  0  0  0  0
 10 11  1  0  0  0  0
 30 26  1  0  0  0  0
 25 26  1  0  0  0  0
 11 13  2  0  0  0  0
 11 12  1  0  0  0  0
 14 13  1  0  0  0  0
 14 15  1  0  0  0  0
 13 16  1  0  0  0  0
 12 18  2  0  0  0  0
 18 17  1  0  0  0  0
 16 17  2  0  0  0  0
 17 19  1  0  0  0  0
 19 20  1  0  0  0  0
M  END
>  <InstanceId>
5ZAJ_32I_U_301

>  <ChemCompId>
32I

>  <PdbId>
5ZAJ

>  <ChainId>
U

>  <ResidueNumber>
301

>  <InsertionCode>


>  <Model>
1

>  <AltIds>


>  <MissingHeavyAtoms>
0

>  <ObservedFormula>
C18 N9 O3

>  <Name>
3-azanyl-5-(azepan-1-yl)-N-carbamimidoyl-6-(2,4-dimethoxypyrimidin-5-yl)pyrazine-2-carboxamide

>  <SystematicName>
3-azanyl-5-(azepan-1-yl)-~{N}-carbamimidoyl-6-(2,4-dimethoxypyrimidin-5-yl)pyrazine-2-carboxamide

>  <Synonyms>


>  <Type>
NON-POLYMER

>  <Formula>
C18 H25 N9 O3

>  <MolecularWeight>
415.45

>  <ModifiedDate>
2018-12-14

>  <Parent>


>  <OneLetterCode>


>  <SubcomponentList>


>  <AmbiguousFlag>
N

>  <InChI>
InChI=1S/C18H25N9O3/c1-29-16-10(9-22-18(26-16)30-2)11-14(27-7-5-3-4-6-8-27)24-13(19)12(23-11)15(28)25-17(20)21/h9H,3-8H2,1-2H3,(H2,19,24)(H4,20,21,25,28)

>  <InChIKey>
GYTXWTOJZQGKDP-UHFFFAOYSA-N

>  <SMILES>
[H]/N=C(/N)\NC(=O)c1c(nc(c(n1)c2cnc(nc2OC)OC)N3CCCCCC3)N

$$$$
