2FPZ_270_A_1000
  RCSB PDB08012017003D
Coordinates from PDB:2FPZ:A:1000 Model:1 without hydrogens
 10 11  0  0  0  0            999 V2000
   32.0420   20.7960   83.2330   N 0  0  0  0  0  0  0  0  0  0  0  0
   32.8570   21.5580   84.0050   C 0  0  0  0  0  0  0  0  0  0  0  0
   30.8320   20.7930   83.7940   C 0  0  0  0  0  0  0  0  0  0  0  0
   29.6060   20.1670   83.4160   C 0  0  0  0  0  0  0  0  0  0  0  0
   28.4470   20.3620   84.2480   C 0  0  0  0  0  0  0  0  0  0  0  0
   28.5370   21.1730   85.4340   C 0  0  0  0  0  0  0  0  0  0  0  0
   29.7790   21.7960   85.8000   C 0  0  0  0  0  0  0  0  0  0  0  0
   30.9210   21.5940   84.9610   C 0  0  0  0  0  0  0  0  0  0  0  0
   32.1820   22.0510   85.0650   N 0  0  0  0  0  0  0  0  0  0  0  0
   34.1580   21.7870   83.7450   N 0  0  0  0  0  0  0  0  0  0  0  0
  1  2  1  0  0  0  0
  1  3  2  0  0  0  0
  2  9  1  0  0  0  0
  2 10  1  0  0  0  0
  3  4  1  0  0  0  0
  3  8  1  0  0  0  0
  4  5  2  0  0  0  0
  5  6  1  0  0  0  0
  6  7  2  0  0  0  0
  7  8  1  0  0  0  0
  8  9  2  0  0  0  0
M  END
>  <InstanceId>
2FPZ_270_A_1000

>  <ChemCompId>
270

>  <PdbId>
2FPZ

>  <ChainId>
A

>  <ResidueNumber>
1000

>  <InsertionCode>


>  <Model>
1

>  <AltIds>


>  <MissingHeavyAtoms>
0

>  <ObservedFormula>
C7 N3

>  <Name>
2H-BENZOIMIDAZOL-2-YLAMINE

>  <SystematicName>
2H-benzimidazol-2-amine

>  <Synonyms>
ZK-800270

>  <Type>
NON-POLYMER

>  <Formula>
C7 H7 N3

>  <MolecularWeight>
133.151

>  <ModifiedDate>
2020-06-17

>  <Parent>


>  <OneLetterCode>


>  <SubcomponentList>


>  <AmbiguousFlag>
N

>  <InChI>
InChI=1S/C7H7N3/c8-7-9-5-3-1-2-4-6(5)10-7/h1-4,7H,8H2

>  <InChIKey>
DERVZEOWPBCBHO-UHFFFAOYSA-N

>  <SMILES>
C1=CC2=NC(N=C2C=C1)N

$$$$
