2QWD_4AM_A_800
  RCSB PDB08012017523D
Coordinates from PDB:2QWD:A:800 Model:1 without hydrogens
 20 20  0  0  0  0            999 V2000
   23.5470   19.8230   64.7940   C 0  0  0  0  0  0  0  0  0  0  0  0
   24.2390   20.8000   65.1250   O 0  0  0  0  0  0  0  0  0  0  0  0
   22.3200   19.7880   65.0250   O 0  0  0  0  0  0  0  0  0  0  0  0
   24.1870   18.8070   64.0730   C 0  0  0  0  0  0  0  0  0  0  0  0
   23.4970   17.7800   63.4710   C 0  0  0  0  0  0  0  0  0  0  0  0
   24.1870   16.6940   62.6390   C 0  0  0  0  0  0  0  0  0  0  0  0
   23.6370   15.4220   63.0820   N 0  0  0  0  0  0  0  0  0  0  0  0
   25.7000   16.7500   62.8310   C 0  0  0  0  0  0  0  0  0  0  0  0
   26.3270   16.0380   61.6930   N 0  0  0  0  0  0  0  0  0  0  0  0
   26.9210   14.8610   61.8820   C 0  0  0  0  0  0  0  0  0  0  0  0
   27.0190   14.3290   62.9950   O 0  0  0  0  0  0  0  0  0  0  0  0
   27.5300   14.1630   60.6590   C 0  0  0  0  0  0  0  0  0  0  0  0
   26.1490   18.2140   62.8170   C 0  0  0  0  0  0  0  0  0  0  0  0
   25.5780   18.8420   63.9410   O 0  0  0  0  0  0  0  0  0  0  0  0
   27.6690   18.3560   62.9040   C 0  0  0  0  0  0  0  0  0  0  0  0
   28.1410   17.7310   64.0780   O 0  0  0  0  0  0  0  0  0  0  0  0
   28.0520   19.8270   62.9040   C 0  0  0  0  0  0  0  0  0  0  0  0
   27.7350   20.2000   61.6320   O 0  0  0  0  0  0  0  0  0  0  0  0
   29.5230   20.1060   63.1000   C 0  0  0  0  0  0  0  0  0  0  0  0
   30.2940   19.3680   62.2300   O 0  0  0  0  0  0  0  0  0  0  0  0
  1  2  2  0  0  0  0
  1  3  1  0  0  0  0
  1  4  1  0  0  0  0
  4  5  2  0  0  0  0
  4 14  1  0  0  0  0
  5  6  1  0  0  0  0
  6  7  1  0  0  0  0
  6  8  1  0  0  0  0
  8  9  1  0  0  0  0
  8 13  1  0  0  0  0
  9 10  1  0  0  0  0
 10 11  2  0  0  0  0
 10 12  1  0  0  0  0
 13 14  1  0  0  0  0
 13 15  1  0  0  0  0
 15 16  1  0  0  0  0
 15 17  1  0  0  0  0
 17 18  1  0  0  0  0
 17 19  1  0  0  0  0
 19 20  1  0  0  0  0
M  END
>  <InstanceId>
2QWD_4AM_A_800

>  <ChemCompId>
4AM

>  <PdbId>
2QWD

>  <ChainId>
A

>  <ResidueNumber>
800

>  <InsertionCode>


>  <Model>
1

>  <AltIds>


>  <MissingHeavyAtoms>
0

>  <ObservedFormula>
C11 N2 O7

>  <Name>
4-AMINO-2-DEOXY-2,3-DEHYDRO-N-ACETYL-NEURAMINIC ACID

>  <SystematicName>
(4S,5R,6R)-5-acetamido-4-amino-6-[(1R,2R)-1,2,3-trihydroxypropyl]-5,6-dihydro-4H-pyran-2-carboxylic acid

>  <Synonyms>
4-amino-Neu5Ac2en

>  <Type>
D-saccharide

>  <Formula>
C11 H18 N2 O7

>  <MolecularWeight>
290.27

>  <ModifiedDate>
2020-07-17

>  <Parent>


>  <OneLetterCode>


>  <SubcomponentList>


>  <AmbiguousFlag>
N

>  <InChI>
InChI=1S/C11H18N2O7/c1-4(15)13-8-5(12)2-7(11(18)19)20-10(8)9(17)6(16)3-14/h2,5-6,8-10,14,16-17H,3,12H2,1H3,(H,13,15)(H,18,19)/t5-,6+,8+,9+,10+/m0/s1

>  <InChIKey>
NKENBBIXEGPQLS-UFGQHTETSA-N

>  <SMILES>
CC(=O)N[C@@H]1[C@H](C=C(O[C@H]1[C@@H]([C@@H](CO)O)O)C(=O)O)N

$$$$
