4B6S_2HN_A_200
  RCSB PDB08012021113D
Coordinates from PDB:4B6S:A:200 Model:1 without hydrogens
 25 26  0  0  0  0            999 V2000
   26.8880   48.9070  -15.2100   F 0  0  0  0  0  0  0  0  0  0  0  0
   25.8030   48.8670  -16.0050   C 0  0  0  0  0  0  0  0  0  0  0  0
   25.9910   48.6980  -17.3640   C 0  0  0  0  0  0  0  0  0  0  0  0
   27.2120   48.5840  -17.8740   F 0  0  0  0  0  0  0  0  0  0  0  0
   24.9280   48.6450  -18.2270   C 0  0  0  0  0  0  0  0  0  0  0  0
   25.1120   48.4680  -19.5320   F 0  0  0  0  0  0  0  0  0  0  0  0
   23.6640   48.7410  -17.7260   C 0  0  0  0  0  0  0  0  0  0  0  0
   22.6450   48.6830  -18.5810   F 0  0  0  0  0  0  0  0  0  0  0  0
   23.4670   48.9230  -16.3810   C 0  0  0  0  0  0  0  0  0  0  0  0
   22.1970   49.0150  -15.9890   F 0  0  0  0  0  0  0  0  0  0  0  0
   24.5240   48.9910  -15.4630   C 0  0  0  0  0  0  0  0  0  0  0  0
   24.3220   49.2180  -13.9430   C 0  0  0  0  0  0  0  0  0  0  0  0
   24.1800   47.9400  -13.1240   C 0  0  0  0  0  0  0  0  0  0  0  0
   24.1230   48.1590  -11.6040   C 0  0  0  0  0  0  0  0  0  0  0  0
   24.2260   46.9210  -10.9170   O 0  0  0  0  0  0  0  0  0  0  0  0
   25.3510   48.9740  -11.2690   C 0  0  0  0  0  0  0  0  0  0  0  0
   26.4230   48.3660  -11.2940   O 0  0  0  0  0  0  0  0  0  0  0  0
   25.1920   50.1640  -10.9830   O 0  0  0  0  0  0  0  0  0  0  0  0
   22.8630   47.3470  -13.5210   C 0  0  0  0  0  0  0  0  0  0  0  0
   22.9150   46.3940  -14.2890   O 0  0  0  0  0  0  0  0  0  0  0  0
   21.5280   47.9440  -13.0000   C 0  0  0  0  0  0  0  0  0  0  0  0
   20.4050   47.2260  -13.5120   O 0  0  0  0  0  0  0  0  0  0  0  0
   21.5600   48.0410  -11.4750   C 0  0  0  0  0  0  0  0  0  0  0  0
   20.4300   48.7930  -11.0820   O 0  0  0  0  0  0  0  0  0  0  0  0
   22.8260   48.8580  -11.1160   C 0  0  0  0  0  0  0  0  0  0  0  0
  1  2  1  0  0  0  0
  2  3  1  0  0  0  0
  2 11  2  0  0  0  0
  3  4  1  0  0  0  0
  3  5  2  0  0  0  0
  5  6  1  0  0  0  0
  5  7  1  0  0  0  0
  7  8  1  0  0  0  0
  7  9  2  0  0  0  0
  9 10  1  0  0  0  0
  9 11  1  0  0  0  0
 11 12  1  0  0  0  0
 12 13  1  0  0  0  0
 13 14  1  0  0  0  0
 13 19  1  0  0  0  0
 14 15  1  0  0  0  0
 14 16  1  0  0  0  0
 14 25  1  0  0  0  0
 16 17  1  0  0  0  0
 16 18  2  0  0  0  0
 19 20  2  0  0  0  0
 19 21  1  0  0  0  0
 21 22  1  0  0  0  0
 21 23  1  0  0  0  0
 23 24  1  0  0  0  0
 23 25  1  0  0  0  0
M  END
>  <InstanceId>
4B6S_2HN_A_200

>  <ChemCompId>
2HN

>  <PdbId>
4B6S

>  <ChainId>
A

>  <ResidueNumber>
200

>  <InsertionCode>


>  <Model>
1

>  <AltIds>


>  <MissingHeavyAtoms>
0

>  <ObservedFormula>
C14 O6 F5

>  <Name>
(1R,2S,4S,5R)-2-(2,3,4,5,6-pentafluorophenyl)methyl-1,4,5-trihydroxy-3-oxocyclohexane-1-carboxylic acid

>  <SystematicName>
(1R,2S,4S,5R)-1,4,5-tris(oxidanyl)-3-oxidanylidene-2-[[2,3,4,5,6-pentakis(fluoranyl)phenyl]methyl]cyclohexane-1-carboxylic acid

>  <Synonyms>
(1R,2S,4S,5R)-2-(perfluorophenyl)methyl-1,4,5-trihydroxy-3-oxocyclohexane-1-carboxylic acid

>  <Type>
non-polymer

>  <Formula>
C14 H11 F5 O6

>  <MolecularWeight>
370.226

>  <ModifiedDate>
2020-06-17

>  <Parent>


>  <OneLetterCode>


>  <SubcomponentList>


>  <AmbiguousFlag>
N

>  <InChI>
InChI=1S/C14H11F5O6/c15-6-3(7(16)9(18)10(19)8(6)17)1-4-11(21)12(22)5(20)2-14(4,25)13(23)24/h4-5,12,20,22,25H,1-2H2,(H,23,24)/t4-,5-,12+,14-/m1/s1

>  <InChIKey>
ZNZHQTVBMHBUCF-GLOYCNQYSA-N

>  <SMILES>
C1[C@H]([C@@H](C(=O)[C@H]([C@]1(C(=O)O)O)Cc2c(c(c(c(c2F)F)F)F)F)O)O

$$$$
