4N7M_2GQ_A_401
  RCSB PDB08012022363D
Coordinates from PDB:4N7M:A:401 Model:1 without hydrogens
 16 18  0  0  0  0            999 V2000
  -23.9910  -28.5270    4.6640   O 0  0  0  0  0  0  0  0  0  0  0  0
  -25.1840  -28.6020    4.9780   C 0  0  0  0  0  0  0  0  0  0  0  0
  -25.6720  -28.8740    6.3460   C 0  0  0  0  0  0  0  0  0  0  0  0
  -24.7650  -29.1230    7.3850   C 0  0  0  0  0  0  0  0  0  0  0  0
  -25.2130  -29.3180    8.6840   C 0  0  0  0  0  0  0  0  0  0  0  0
  -26.1640  -28.3780    4.0370   N 0  0  0  0  0  0  0  0  0  0  0  0
  -27.4890  -28.3940    4.3530   C 0  0  0  0  0  0  0  0  0  0  0  0
  -27.9910  -28.6210    5.5790   C 0  0  0  0  0  0  0  0  0  0  0  0
  -27.0600  -28.8600    6.6390   C 0  0  0  0  0  0  0  0  0  0  0  0
  -27.4870  -29.0600    7.9630   C 0  0  0  0  0  0  0  0  0  0  0  0
  -26.5670  -29.2840    8.9700   C 0  0  0  0  0  0  0  0  0  0  0  0
  -28.3080  -28.1870    3.3860   N 0  0  0  0  0  0  0  0  0  0  0  0
  -29.7580  -28.1950    3.5030   C 0  0  0  0  0  0  0  0  0  0  0  0
  -30.2240  -28.0640    2.0830   C 0  0  0  0  0  0  0  0  0  0  0  0
  -29.1130  -28.5600    1.3490   C 0  0  0  0  0  0  0  0  0  0  0  0
  -27.9210  -28.0150    2.0260   C 0  0  0  0  0  0  0  0  0  0  0  0
 15 16  1  0  0  0  0
 15 14  1  0  0  0  0
 16 12  1  0  0  0  0
 14 13  1  0  0  0  0
 12 13  1  0  0  0  0
 12  7  1  0  0  0  0
  6  7  1  0  0  0  0
  6  2  1  0  0  0  0
  7  8  2  0  0  0  0
  1  2  2  0  0  0  0
  2  3  1  0  0  0  0
  8  9  1  0  0  0  0
  3  9  2  0  0  0  0
  3  4  1  0  0  0  0
  9 10  1  0  0  0  0
  4  5  2  0  0  0  0
 10 11  2  0  0  0  0
  5 11  1  0  0  0  0
M  END
>  <InstanceId>
4N7M_2GQ_A_401

>  <ChemCompId>
2GQ

>  <PdbId>
4N7M

>  <ChainId>
A

>  <ResidueNumber>
401

>  <InsertionCode>


>  <Model>
1

>  <AltIds>


>  <MissingHeavyAtoms>
0

>  <ObservedFormula>
C13 N2 O

>  <Name>
3-(pyrrolidin-1-yl)isoquinolin-1(2H)-one

>  <SystematicName>
3-pyrrolidin-1-yl-2H-isoquinolin-1-one

>  <Synonyms>


>  <Type>
NON-POLYMER

>  <Formula>
C13 H14 N2 O

>  <MolecularWeight>
214.263

>  <ModifiedDate>
2013-12-13

>  <Parent>


>  <OneLetterCode>


>  <SubcomponentList>


>  <AmbiguousFlag>
N

>  <InChI>
InChI=1S/C13H14N2O/c16-13-11-6-2-1-5-10(11)9-12(14-13)15-7-3-4-8-15/h1-2,5-6,9H,3-4,7-8H2,(H,14,16)

>  <InChIKey>
YGHVWKFNYLLGEJ-UHFFFAOYSA-N

>  <SMILES>
c1ccc2c(c1)C=C(NC2=O)N3CCCC3

$$$$
