3ISS_EPU_A_601
  RCSB PDB08012019213D
Coordinates from PDB:3ISS:A:601 Model:1 without hydrogens
 44 46  0  0  0  0            999 V2000
   -6.6410  -13.4470   -3.0100   N 0  0  0  0  0  0  0  0  0  0  0  0
   -7.1240  -14.7250   -2.9110   C 0  0  0  0  0  0  0  0  0  0  0  0
   -6.6650  -15.5980   -2.0290   N 0  0  0  0  0  0  0  0  0  0  0  0
   -5.6980  -15.2340   -1.2170   C 0  0  0  0  0  0  0  0  0  0  0  0
   -5.1900  -13.9610   -1.2970   C 0  0  0  0  0  0  0  0  0  0  0  0
   -5.6850  -13.0600   -2.2130   C 0  0  0  0  0  0  0  0  0  0  0  0
   -8.0100  -15.0620   -3.6700   O 0  0  0  0  0  0  0  0  0  0  0  0
   -5.2740  -16.0480   -0.4080   O 0  0  0  0  0  0  0  0  0  0  0  0
   -7.2320  -12.5820   -4.0010   C 0  0  0  0  0  0  0  0  0  0  0  0
   -7.6600  -11.2930   -3.3680   C 0  0  0  0  0  0  0  0  0  0  0  0
   -9.0650  -11.1990   -3.4050   O 0  0  0  0  0  0  0  0  0  0  0  0
   -7.1370  -10.2390   -4.2750   C 0  0  0  0  0  0  0  0  0  0  0  0
   -6.0930  -10.9070   -5.1270   C 0  0  0  0  0  0  0  0  0  0  0  0
   -6.3210  -12.2840   -5.0350   O 0  0  0  0  0  0  0  0  0  0  0  0
   -8.2400   -9.8360   -5.0600   O 0  0  0  0  0  0  0  0  0  0  0  0
   -4.6810  -10.7320   -4.6180   C 0  0  0  0  0  0  0  0  0  0  0  0
   -4.5030   -9.6740   -3.7060   O 0  0  0  0  0  0  0  0  0  0  0  0
   -3.1430   -9.5890   -2.9850   P 0  0  0  0  0  0  0  0  0  0  0  0
   -3.0910  -10.6890   -2.0790   O 0  0  0  0  0  0  0  0  0  0  0  0
   -2.1740   -9.4550   -4.0380   O 0  0  0  0  0  0  0  0  0  0  0  0
   -3.2630   -8.2410   -2.2060   O 0  0  0  0  0  0  0  0  0  0  0  0
   -3.0210   -7.9580   -0.6700   P 0  0  0  0  0  0  0  0  0  0  0  0
   -1.8490   -8.6330   -0.1880   O 0  0  0  0  0  0  0  0  0  0  0  0
   -4.2350   -8.1290    0.0830   O 0  0  0  0  0  0  0  0  0  0  0  0
   -1.5870   -5.9570   -1.0160   C 0  0  0  0  0  0  0  0  0  0  0  0
   -1.5590   -4.5210   -0.5750   C 0  0  0  0  0  0  0  0  0  0  0  0
   -2.7840   -3.8320   -1.0950   C 0  0  0  0  0  0  0  0  0  0  0  0
   -2.6850   -3.8910   -2.5690   C 0  0  0  0  0  0  0  0  0  0  0  0
   -2.6940   -5.3370   -2.9390   C 0  0  0  0  0  0  0  0  0  0  0  0
   -2.5970   -5.3690   -4.4240   C 0  0  0  0  0  0  0  0  0  0  0  0
   -0.7350   -4.3130    1.6070   C 0  0  0  0  0  0  0  0  0  0  0  0
   -0.9520   -4.2270    3.0680   C 0  0  0  0  0  0  0  0  0  0  0  0
   -1.7740   -4.4730    0.8340   N 0  0  0  0  0  0  0  0  0  0  0  0
   -2.8150   -6.4500   -0.6700   O 0  0  0  0  0  0  0  0  0  0  0  0
   -2.7760   -2.4830   -0.7410   O 0  0  0  0  0  0  0  0  0  0  0  0
   -3.8520   -3.2760   -3.0240   O 0  0  0  0  0  0  0  0  0  0  0  0
   -1.5720   -5.9780   -2.4100   O 0  0  0  0  0  0  0  0  0  0  0  0
   -1.7830   -4.2610   -4.7070   O 0  0  0  0  0  0  0  0  0  0  0  0
    0.3520   -4.2500    1.1460   O 0  0  0  0  0  0  0  0  0  0  0  0
   -3.0590   -1.0700    1.2070   C 0  0  0  0  0  0  0  0  0  0  0  0
   -2.5150   -0.1290    0.6530   O 0  0  0  0  0  0  0  0  0  0  0  0
   -3.1390   -1.0800    2.4340   O 0  0  0  0  0  0  0  0  0  0  0  0
   -3.5950   -2.2050    0.3800   C 0  0  0  0  0  0  0  0  0  0  0  0
   -5.0050   -1.9230   -0.0830   C 0  0  0  0  0  0  0  0  0  0  0  0
  1  2  1  0  0  0  0
  1  6  1  0  0  0  0
  1  9  1  0  0  0  0
  2  3  1  0  0  0  0
  2  7  2  0  0  0  0
  3  4  1  0  0  0  0
  4  5  1  0  0  0  0
  4  8  2  0  0  0  0
  5  6  2  0  0  0  0
  9 10  1  0  0  0  0
  9 14  1  0  0  0  0
 10 11  1  0  0  0  0
 10 12  1  0  0  0  0
 12 13  1  0  0  0  0
 12 15  1  0  0  0  0
 13 14  1  0  0  0  0
 13 16  1  0  0  0  0
 16 17  1  0  0  0  0
 17 18  1  0  0  0  0
 18 19  2  0  0  0  0
 18 20  1  0  0  0  0
 18 21  1  0  0  0  0
 21 22  1  0  0  0  0
 22 23  2  0  0  0  0
 22 24  1  0  0  0  0
 22 34  1  0  0  0  0
 25 26  1  0  0  0  0
 25 34  1  0  0  0  0
 25 37  1  0  0  0  0
 26 27  1  0  0  0  0
 26 33  1  0  0  0  0
 27 28  1  0  0  0  0
 27 35  1  0  0  0  0
 28 29  1  0  0  0  0
 28 36  1  0  0  0  0
 29 30  1  0  0  0  0
 29 37  1  0  0  0  0
 30 38  1  0  0  0  0
 31 32  1  0  0  0  0
 31 33  1  0  0  0  0
 31 39  2  0  0  0  0
 35 43  1  0  0  0  0
 40 41  2  0  0  0  0
 40 42  1  0  0  0  0
 40 43  1  0  0  0  0
 43 44  2  0  0  0  0
M  END
>  <InstanceId>
3ISS_EPU_A_601

>  <ChemCompId>
EPU

>  <PdbId>
3ISS

>  <ChainId>
A

>  <ResidueNumber>
601

>  <InsertionCode>


>  <Model>
1

>  <AltIds>


>  <MissingHeavyAtoms>
0

>  <ObservedFormula>
C20 N3 O19 P2

>  <Name>
URIDINE-DIPHOSPHATE-2(N-ACETYLGLUCOSAMINYL) BUTYRIC ACID

>  <SystematicName>
2-[(2R,3R,4R,5S,6R)-3-acetamido-2-[[[(2R,3S,4R,5R)-5-(2,4-dioxopyrimidin-1-yl)-3,4-dihydroxy-oxolan-2-yl]methoxy-hydroxy-phosphoryl]oxy-hydroxy-phosphoryl]oxy-5-hydroxy-6-(hydroxymethyl)oxan-4-yl]oxyprop-2-enoic acid

>  <Synonyms>
ENOLPYRUVYL-URIDINE-DIPHOSPHATE-N-ACETYLGLUCOSAMINE

>  <Type>
NON-POLYMER

>  <Formula>
C20 H29 N3 O19 P2

>  <MolecularWeight>
677.4

>  <ModifiedDate>
2020-06-17

>  <Parent>


>  <OneLetterCode>


>  <SubcomponentList>


>  <AmbiguousFlag>
N

>  <InChI>
InChI=1S/C20H29N3O19P2/c1-7(18(30)31)38-16-12(21-8(2)25)19(40-9(5-24)14(16)28)41-44(35,36)42-43(33,34)37-6-10-13(27)15(29)17(39-10)23-4-3-11(26)22-20(23)32/h3-4,9-10,12-17,19,24,27-29H,1,5-6H2,2H3,(H,21,25)(H,30,31)(H,33,34)(H,35,36)(H,22,26,32)/t9-,10-,12-,13-,14-,15-,16-,17-,19-/m1/s1

>  <InChIKey>
BEGZZYPUNCJHKP-DBYWSUQTSA-N

>  <SMILES>
CC(=O)N[C@@H]1[C@H]([C@@H]([C@H](O[C@@H]1O[P@@](=O)(O)O[P@](=O)(O)OC[C@@H]2[C@H]([C@H]([C@@H](O2)N3C=CC(=O)NC3=O)O)O)CO)O)OC(=C)C(=O)O

$$$$
