3PBB_PBD_A_380
  RCSB PDB08012020073D
Coordinates from PDB:3PBB:A:380 Model:1 without hydrogens
 22 23  0  0  0  0            999 V2000
    3.4040   76.5310    1.0340   C 0  0  0  0  0  0  0  0  0  0  0  0
    3.6190   71.6740    3.2840   C 0  0  0  0  0  0  0  0  0  0  0  0
    0.9770   74.8840    9.2290   S 0  0  0  0  0  0  0  0  0  0  0  0
   -5.6270   75.3090    3.6370   C 0  0  0  0  0  0  0  0  0  0  0  0
    2.4050   76.2670    4.9990   C 0  0  0  0  0  0  0  0  0  0  0  0
    2.6980   76.4120    3.6430   C 0  0  0  0  0  0  0  0  0  0  0  0
   -4.9940   74.8750    4.7410   C 0  0  0  0  0  0  0  0  0  0  0  0
   -4.7710   77.1000    4.6120   C 0  0  0  0  0  0  0  0  0  0  0  0
    2.9570   73.8860    4.8680   C 0  0  0  0  0  0  0  0  0  0  0  0
   -2.2660   75.6210    6.0550   C 0  0  0  0  0  0  0  0  0  0  0  0
   -1.3710   75.6170    7.2960   C 0  0  0  0  0  0  0  0  0  0  0  0
   -3.6630   76.0000    6.5410   C 0  0  0  0  0  0  0  0  0  0  0  0
   -5.5210   76.6730    3.6200   N 0  0  0  0  0  0  0  0  0  0  0  0
   -0.0120   75.4610    6.7550   N 0  0  0  0  0  0  0  0  0  0  0  0
    2.2970   74.9180    6.9080   N 0  0  0  0  0  0  0  0  0  0  0  0
    3.3840   75.2600    1.6160   O 0  0  0  0  0  0  0  0  0  0  0  0
    3.6610   73.0250    2.6410   O 0  0  0  0  0  0  0  0  0  0  0  0
    1.0860   75.1130    7.4940   C 0  0  0  0  0  0  0  0  0  0  0  0
    2.5420   75.0160    5.6160   C 0  0  0  0  0  0  0  0  0  0  0  0
    3.0920   75.2720    2.9330   C 0  0  0  0  0  0  0  0  0  0  0  0
    3.2390   74.0320    3.5050   C 0  0  0  0  0  0  0  0  0  0  0  0
   -4.5070   75.9950    5.3300   N 0  0  0  0  0  0  0  0  0  0  0  0
  1 16  1  0  0  0  0
  2 17  1  0  0  0  0
  3 18  2  0  0  0  0
  4  7  2  0  0  0  0
  4 13  1  0  0  0  0
  5  6  2  0  0  0  0
  5 19  1  0  0  0  0
  6 20  1  0  0  0  0
  7 22  1  0  0  0  0
  8 13  2  0  0  0  0
  8 22  1  0  0  0  0
  9 19  2  0  0  0  0
  9 21  1  0  0  0  0
 10 11  1  0  0  0  0
 10 12  1  0  0  0  0
 11 14  1  0  0  0  0
 12 22  1  0  0  0  0
 14 18  1  0  0  0  0
 15 18  1  0  0  0  0
 15 19  1  0  0  0  0
 16 20  1  0  0  0  0
 17 21  1  0  0  0  0
 20 21  2  0  0  0  0
M  END
>  <InstanceId>
3PBB_PBD_A_380

>  <ChemCompId>
PBD

>  <PdbId>
3PBB

>  <ChainId>
A

>  <ResidueNumber>
380

>  <InsertionCode>


>  <Model>
1

>  <AltIds>


>  <MissingHeavyAtoms>
0

>  <ObservedFormula>
C15 N4 O2 S

>  <Name>
1-(3,4-dimethoxyphenyl)-3-[3-(1H-imidazol-1-yl)propyl]thiourea

>  <SystematicName>
1-(3,4-dimethoxyphenyl)-3-(3-imidazol-1-ylpropyl)thiourea

>  <Synonyms>


>  <Type>
NON-POLYMER

>  <Formula>
C15 H20 N4 O2 S

>  <MolecularWeight>
320.41

>  <ModifiedDate>
2011-06-04

>  <Parent>


>  <OneLetterCode>


>  <SubcomponentList>


>  <AmbiguousFlag>
N

>  <InChI>
InChI=1S/C15H20N4O2S/c1-20-13-5-4-12(10-14(13)21-2)18-15(22)17-6-3-8-19-9-7-16-11-19/h4-5,7,9-11H,3,6,8H2,1-2H3,(H2,17,18,22)

>  <InChIKey>
FZQXMGLQANXZRP-UHFFFAOYSA-N

>  <SMILES>
COc1ccc(cc1OC)NC(=S)NCCCn2ccnc2

$$$$
