1MU6_CDA_B_248
  RCSB PDB08012015293D
Coordinates from PDB:1MU6:B:248 Model:1 without hydrogens
 31 33  0  0  0  0            999 V2000
   21.0030  -16.5290   25.1660   N 0  0  0  0  0  0  0  0  0  0  0  0
   19.9150  -15.9270   25.8320   C 0  0  0  0  0  0  0  0  0  0  0  0
   20.0020  -14.5590   26.3240   C 0  0  0  0  0  0  0  0  0  0  0  0
   21.2530  -13.8830   26.0790   C 0  0  0  0  0  0  0  0  0  0  0  0
   22.3420  -14.5410   25.3720   C 0  0  0  0  0  0  0  0  0  0  0  0
   22.2100  -15.9040   24.9070   C 0  0  0  0  0  0  0  0  0  0  0  0
   18.6310  -16.7480   25.9420   C 0  0  0  0  0  0  0  0  0  0  0  0
   18.0830  -17.1760   24.5920   C 0  0  0  0  0  0  0  0  0  0  0  0
   17.6280  -16.1140   26.5880   F 0  0  0  0  0  0  0  0  0  0  0  0
   18.9320  -17.8750   26.6020   F 0  0  0  0  0  0  0  0  0  0  0  0
   17.4760  -16.0450   23.8730   N 0  0  0  0  0  0  0  0  0  0  0  0
   18.0880  -15.3250   22.8760   C 0  0  0  0  0  0  0  0  0  0  0  0
   17.4500  -14.0430   22.4650   C 0  0  0  0  0  0  0  0  0  0  0  0
   18.0980  -13.3440   21.4690   N 0  0  0  0  0  0  0  0  0  0  0  0
   19.3180  -13.8330   20.8740   C 0  0  0  0  0  0  0  0  0  0  0  0
   19.8710  -15.0400   21.3370   C 0  0  0  0  0  0  0  0  0  0  0  0
   19.2510  -15.7300   22.2940   N 0  0  0  0  0  0  0  0  0  0  0  0
   16.4120  -13.6170   22.9680   O 0  0  0  0  0  0  0  0  0  0  0  0
   20.0270  -13.1170   19.7930   C 0  0  0  0  0  0  0  0  0  0  0  0
   17.4940  -12.0810   21.0030   C 0  0  0  0  0  0  0  0  0  0  0  0
   16.0640  -12.2970   20.5380   C 0  0  0  0  0  0  0  0  0  0  0  0
   15.1990  -11.3330   20.9400   N 0  0  0  0  0  0  0  0  0  0  0  0
   15.7760  -13.2640   19.8350   O 0  0  0  0  0  0  0  0  0  0  0  0
   13.7930  -11.3680   20.5230   C 0  0  0  0  0  0  0  0  0  0  0  0
   12.8490  -11.3470   21.7030   C 0  0  0  0  0  0  0  0  0  0  0  0
   11.8640  -12.3760   21.8290   C 0  0  0  0  0  0  0  0  0  0  0  0
   10.9730  -12.3960   22.9570   C 0  0  0  0  0  0  0  0  0  0  0  0
   11.0960  -11.3520   23.9430   C 0  0  0  0  0  0  0  0  0  0  0  0
   12.9510  -10.3500   22.6580   N 0  0  0  0  0  0  0  0  0  0  0  0
   11.8270  -13.2730   20.8440   F 0  0  0  0  0  0  0  0  0  0  0  0
   12.1070  -10.3310   23.7580   C 0  0  0  0  0  0  0  0  0  0  0  0
  1  2  1  0  0  0  0
  1  6  2  0  0  0  0
  2  3  2  0  0  0  0
  2  7  1  0  0  0  0
  3  4  1  0  0  0  0
  4  5  2  0  0  0  0
  5  6  1  0  0  0  0
  7  8  1  0  0  0  0
  7  9  1  0  0  0  0
  7 10  1  0  0  0  0
  8 11  1  0  0  0  0
 11 12  1  0  0  0  0
 12 13  1  0  0  0  0
 12 17  2  0  0  0  0
 13 14  1  0  0  0  0
 13 18  2  0  0  0  0
 14 15  1  0  0  0  0
 14 20  1  0  0  0  0
 15 16  2  0  0  0  0
 15 19  1  0  0  0  0
 16 17  1  0  0  0  0
 20 21  1  0  0  0  0
 21 22  1  0  0  0  0
 21 23  2  0  0  0  0
 22 24  1  0  0  0  0
 24 25  1  0  0  0  0
 25 26  2  0  0  0  0
 25 29  1  0  0  0  0
 26 27  1  0  0  0  0
 26 30  1  0  0  0  0
 27 28  2  0  0  0  0
 28 31  1  0  0  0  0
 29 31  2  0  0  0  0
M  END
>  <InstanceId>
1MU6_CDA_B_248

>  <ChemCompId>
CDA

>  <PdbId>
1MU6

>  <ChainId>
B

>  <ResidueNumber>
248

>  <InsertionCode>


>  <Model>
1

>  <AltIds>


>  <MissingHeavyAtoms>
0

>  <ObservedFormula>
C20 N6 O2 F3

>  <Name>
2-(6-CHLORO-3-{[2,2-DIFLUORO-2-(2-PYRIDINYL)ETHYL]AMINO}-2-OXO-1(2H)-PYRAZINYL)-N-[(2-FLUORO-6-PYRIDINYL)METHYL]ACETAMIDE

>  <SystematicName>
2-[3-[(2,2-difluoro-2-pyridin-2-yl-ethyl)amino]-6-methyl-2-oxo-pyrazin-1-yl]-N-[(3-fluoropyridin-2-yl)methyl]ethanamide

>  <Synonyms>


>  <Type>
NON-POLYMER

>  <Formula>
C20 H19 F3 N6 O2

>  <MolecularWeight>
432.399

>  <ModifiedDate>
2011-06-04

>  <Parent>


>  <OneLetterCode>


>  <SubcomponentList>


>  <AmbiguousFlag>
N

>  <InChI>
InChI=1S/C20H19F3N6O2/c1-13-9-27-18(28-12-20(22,23)16-6-2-3-7-25-16)19(31)29(13)11-17(30)26-10-15-14(21)5-4-8-24-15/h2-9H,10-12H2,1H3,(H,26,30)(H,27,28)

>  <InChIKey>
JXHWVKOKYDAROD-UHFFFAOYSA-N

>  <SMILES>
CC1=CN=C(C(=O)N1CC(=O)NCc2c(cccn2)F)NCC(c3ccccn3)(F)F

$$$$
