2Q54_MU1_B_200
  RCSB PDB08012017473D
Coordinates from PDB:2Q54:B:200 Model:1 without hydrogens
 48 51  0  0  0  0            999 V2000
   21.9950    4.1030   19.0340   O 0  0  0  0  0  0  0  0  0  0  0  0
   21.9140    3.3640   19.9990   C 0  0  0  0  0  0  0  0  0  0  0  0
   21.6800    3.8920   21.3880   C 0  0  0  0  0  0  0  0  0  0  0  0
   22.0460    2.0390   19.8830   N 0  0  0  0  0  0  0  0  0  0  0  0
   22.3640    1.3790   18.6270   C 0  0  0  0  0  0  0  0  0  0  0  0
   23.7410    0.7170   18.6880   C 0  0  0  0  0  0  0  0  0  0  0  0
   24.0060   -0.0890   17.4180   C 0  0  0  0  0  0  0  0  0  0  0  0
   24.8440    1.7510   18.9380   C 0  0  0  0  0  0  0  0  0  0  0  0
   21.2890    0.3830   18.2760   C 0  0  0  0  0  0  0  0  0  0  0  0
   21.2460   -0.7000   18.8380   O 0  0  0  0  0  0  0  0  0  0  0  0
   20.4190    0.8130   17.3670   N 0  0  0  0  0  0  0  0  0  0  0  0
   19.1950    0.1150   16.9830   C 0  0  0  0  0  0  0  0  0  0  0  0
   17.9180    0.8490   17.4210   C 0  0  0  0  0  0  0  0  0  0  0  0
   18.0050    1.3720   18.8350   C 0  0  0  0  0  0  0  0  0  0  0  0
   17.7930    0.5270   19.9120   C 0  0  0  0  0  0  0  0  0  0  0  0
   17.8820    1.0220   21.2130   C 0  0  0  0  0  0  0  0  0  0  0  0
   18.1760    2.3660   21.4320   C 0  0  0  0  0  0  0  0  0  0  0  0
   18.3760    3.2100   20.3510   C 0  0  0  0  0  0  0  0  0  0  0  0
   18.2880    2.7120   19.0560   C 0  0  0  0  0  0  0  0  0  0  0  0
   19.0840    0.0230   15.4800   C 0  0  0  0  0  0  0  0  0  0  0  0
   20.3240   -0.4710   14.7690   C 0  0  0  0  0  0  0  0  0  0  0  0
   20.1560   -0.1430   13.3740   O 0  0  0  0  0  0  0  0  0  0  0  0
   20.5530   -1.9740   14.9720   C 0  0  0  0  0  0  0  0  0  0  0  0
   21.8940   -2.3610   14.3460   C 0  0  0  0  0  0  0  0  0  0  0  0
   22.1140   -3.8540   14.4610   C 0  0  0  0  0  0  0  0  0  0  0  0
   21.9940   -4.6770   13.3350   C 0  0  0  0  0  0  0  0  0  0  0  0
   22.1850   -6.0530   13.4490   C 0  0  0  0  0  0  0  0  0  0  0  0
   22.4970   -6.6080   14.6880   C 0  0  0  0  0  0  0  0  0  0  0  0
   22.6100   -5.7840   15.8060   C 0  0  0  0  0  0  0  0  0  0  0  0
   22.4180   -4.4100   15.6990   C 0  0  0  0  0  0  0  0  0  0  0  0
   19.4970   -2.8280   14.4180   N 0  0  0  0  0  0  0  0  0  0  0  0
   18.8020   -3.7360   15.1240   C 0  0  0  0  0  0  0  0  0  0  0  0
   18.8420   -3.8510   16.3450   O 0  0  0  0  0  0  0  0  0  0  0  0
   17.9480   -4.7220   14.3540   C 0  0  0  0  0  0  0  0  0  0  0  0
   18.4220   -6.1510   14.6110   C 0  0  0  0  0  0  0  0  0  0  0  0
   18.0250   -4.5340   12.9350   O 0  0  0  0  0  0  0  0  0  0  0  0
   18.3380   -5.8110   12.3450   C 0  0  0  0  0  0  0  0  0  0  0  0
   18.3490   -5.9640   11.1580   O 0  0  0  0  0  0  0  0  0  0  0  0
   18.5660   -6.7030   13.2790   N 0  0  0  0  0  0  0  0  0  0  0  0
   18.9390   -8.0430   13.0270   C 0  0  0  0  0  0  0  0  0  0  0  0
   18.4250   -8.7490   11.9420   C 0  0  0  0  0  0  0  0  0  0  0  0
   18.8120  -10.0690   11.7190   C 0  0  0  0  0  0  0  0  0  0  0  0
   19.7060  -10.7120   12.5770   C 0  0  0  0  0  0  0  0  0  0  0  0
   19.8410   -8.6960   13.8800   C 0  0  0  0  0  0  0  0  0  0  0  0
   20.2320  -10.0250   13.6680   C 0  0  0  0  0  0  0  0  0  0  0  0
   21.2010  -10.6950   14.6150   C 0  0  0  0  0  0  0  0  0  0  0  0
   21.5190  -10.1410   15.6630   O 0  0  0  0  0  0  0  0  0  0  0  0
   21.7700  -12.0480   14.2840   C 0  0  0  0  0  0  0  0  0  0  0  0
  1  2  2  0  0  0  0
  2  4  1  0  0  0  0
  2  3  1  0  0  0  0
  4  5  1  0  0  0  0
  5  9  1  0  0  0  0
  5  6  1  0  0  0  0
  6  7  1  0  0  0  0
  6  8  1  0  0  0  0
  9 11  1  0  0  0  0
  9 10  2  0  0  0  0
 11 12  1  0  0  0  0
 12 20  1  0  0  0  0
 12 13  1  0  0  0  0
 13 14  1  0  0  0  0
 14 19  2  0  0  0  0
 14 15  1  0  0  0  0
 15 16  2  0  0  0  0
 16 17  1  0  0  0  0
 17 18  2  0  0  0  0
 18 19  1  0  0  0  0
 20 21  1  0  0  0  0
 21 22  1  0  0  0  0
 21 23  1  0  0  0  0
 23 24  1  0  0  0  0
 23 31  1  0  0  0  0
 24 25  1  0  0  0  0
 25 26  1  0  0  0  0
 25 30  2  0  0  0  0
 26 27  2  0  0  0  0
 27 28  1  0  0  0  0
 28 29  2  0  0  0  0
 29 30  1  0  0  0  0
 31 32  1  0  0  0  0
 32 34  1  0  0  0  0
 32 33  2  0  0  0  0
 34 36  1  0  0  0  0
 34 35  1  0  0  0  0
 35 39  1  0  0  0  0
 36 37  1  0  0  0  0
 37 38  2  0  0  0  0
 37 39  1  0  0  0  0
 39 40  1  0  0  0  0
 40 41  1  0  0  0  0
 40 44  2  0  0  0  0
 41 42  2  0  0  0  0
 42 43  1  0  0  0  0
 43 45  2  0  0  0  0
 44 45  1  0  0  0  0
 45 46  1  0  0  0  0
 46 48  1  0  0  0  0
 46 47  2  0  0  0  0
M  END
>  <InstanceId>
2Q54_MU1_B_200

>  <ChemCompId>
MU1

>  <PdbId>
2Q54

>  <ChainId>
B

>  <ResidueNumber>
200

>  <InsertionCode>


>  <Model>
1

>  <AltIds>


>  <MissingHeavyAtoms>
0

>  <ObservedFormula>
C37 N4 O7

>  <Name>
N~2~-ACETYL-N-[(1S,3S,4S)-4-({[(5S)-3-(3-ACETYLPHENYL)-2-OXO-1,3-OXAZOLIDIN-5-YL]CARBONYL}AMINO)-1-BENZYL-3-HYDROXY-5-PHENYLPENTYL]-L-VALINAMIDE

>  <SystematicName>
(5S)-N-[(2S,3S,5S)-5-[[(2S)-2-acetamido-3-methyl-butanoyl]amino]-3-hydroxy-1,6-diphenyl-hexan-2-yl]-3-(3-ethanoylphenyl)-2-oxo-1,3-oxazolidine-5-carboxamide

>  <Synonyms>


>  <Type>
NON-POLYMER

>  <Formula>
C37 H44 N4 O7

>  <MolecularWeight>
656.768

>  <ModifiedDate>
2011-06-04

>  <Parent>


>  <OneLetterCode>


>  <SubcomponentList>


>  <AmbiguousFlag>


>  <InChI>
InChI=1S/C37H44N4O7/c1-23(2)34(38-25(4)43)36(46)39-29(18-26-12-7-5-8-13-26)21-32(44)31(19-27-14-9-6-10-15-27)40-35(45)33-22-41(37(47)48-33)30-17-11-16-28(20-30)24(3)42/h5-17,20,23,29,31-34,44H,18-19,21-22H2,1-4H3,(H,38,43)(H,39,46)(H,40,45)/t29-,31-,32-,33-,34-/m0/s1

>  <InChIKey>
CZPLKLADANMGQQ-JUZBSFEJSA-N

>  <SMILES>
CC(C)[C@@H](C(=O)N[C@@H](Cc1ccccc1)C[C@@H]([C@H](Cc2ccccc2)NC(=O)[C@@H]3CN(C(=O)O3)c4cccc(c4)C(=O)C)O)NC(=O)C

$$$$
