2C80_GTX_A_1212
  RCSB PDB08012016453D
Coordinates from PDB:2C80:A:1212 Model:1 without hydrogens
 26 25  0  0  0  0            999 V2000
  -10.8020   26.4010   -2.1630   N 0  3  0  0  0  0  0  0  0  0  0  0
  -11.8480   27.0190   -2.9550   C 0  0  0  0  0  0  0  0  0  0  0  0
  -12.2020   26.1250   -4.1030   C 0  0  0  0  0  0  0  0  0  0  0  0
  -11.3120   25.5120   -4.7300   O 0  0  0  0  0  0  0  0  0  0  0  0
  -13.3910   26.0020   -4.4530   O 0  0  0  0  0  0  0  0  0  0  0  0
  -11.3810   28.3670   -3.4990   C 0  0  0  0  0  0  0  0  0  0  0  0
  -12.5510   29.1780   -4.0660   C 0  0  0  0  0  0  0  0  0  0  0  0
  -12.0830   30.5440   -4.5110   C 0  0  0  0  0  0  0  0  0  0  0  0
  -10.8900   31.0810   -3.9970   O 0  0  0  0  0  0  0  0  0  0  0  0
  -12.8450   31.1940   -5.3940   N 0  0  0  0  0  0  0  0  0  0  0  0
  -12.4440   32.4530   -6.0040   C 0  0  0  0  0  0  0  0  0  0  0  0
  -13.5910   33.4080   -6.0840   C 0  0  0  0  0  0  0  0  0  0  0  0
  -14.8890   32.9090   -6.2870   O 0  0  0  0  0  0  0  0  0  0  0  0
  -11.8360   32.2500   -7.3980   C 0  0  0  0  0  0  0  0  0  0  0  0
  -10.8320   30.7390   -7.5330   S 0  0  0  0  0  0  0  0  0  0  0  0
   -9.4230   31.5750   -6.7570   C 0  0  0  0  0  0  0  0  0  0  0  0
   -8.2020   30.6740   -6.6170   C 0  0  0  0  0  0  0  0  0  0  0  0
   -7.0830   31.1900   -7.5150   C 0  0  0  0  0  0  0  0  0  0  0  0
   -6.8780   30.2820   -8.7220   C 0  0  0  0  0  0  0  0  0  0  0  0
   -6.3350   31.0750   -9.9060   C 0  0  0  0  0  0  0  0  0  0  0  0
   -5.3730   30.2420  -10.7490   C 0  0  0  0  0  0  0  0  0  0  0  0
  -13.3060   34.7030   -5.9620   N 0  0  0  0  0  0  0  0  0  0  0  0
  -14.2730   35.7360   -6.2850   C 0  0  0  0  0  0  0  0  0  0  0  0
  -14.8700   36.3120   -5.0280   C 0  0  0  0  0  0  0  0  0  0  0  0
  -15.8330   37.1040   -5.0750   O 0  0  0  0  0  0  0  0  0  0  0  0
  -14.3960   36.0010   -3.9170   O 0  0  0  0  0  0  0  0  0  0  0  0
  1  2  1  0  0  0  0
  2  3  1  0  0  0  0
  2  6  1  0  0  0  0
  3  4  2  0  0  0  0
  3  5  1  0  0  0  0
  6  7  1  0  0  0  0
  7  8  1  0  0  0  0
  8  9  2  0  0  0  0
  8 10  1  0  0  0  0
 10 11  1  0  0  0  0
 11 12  1  0  0  0  0
 11 14  1  0  0  0  0
 12 13  2  0  0  0  0
 12 22  1  0  0  0  0
 14 15  1  0  0  0  0
 15 16  1  0  0  0  0
 16 17  1  0  0  0  0
 17 18  1  0  0  0  0
 18 19  1  0  0  0  0
 19 20  1  0  0  0  0
 20 21  1  0  0  0  0
 22 23  1  0  0  0  0
 23 24  1  0  0  0  0
 24 25  2  0  0  0  0
 24 26  1  0  0  0  0
M  CHG  1   1   1
M  END
>  <InstanceId>
2C80_GTX_A_1212

>  <ChemCompId>
GTX

>  <PdbId>
2C80

>  <ChainId>
A

>  <ResidueNumber>
1212

>  <InsertionCode>


>  <Model>
1

>  <AltIds>


>  <MissingHeavyAtoms>
0

>  <ObservedFormula>
C16 N3 O6 S

>  <Name>
S-HEXYLGLUTATHIONE

>  <SystematicName>
[(2S)-5-[[(2R)-1-(carboxymethylamino)-3-hexylsulfanyl-1-oxo-propan-2-yl]amino]-1-hydroxy-1,5-dioxo-pentan-2-yl]azanium

>  <Synonyms>


>  <Type>
NON-POLYMER

>  <Formula>
C16 H30 N3 O6 S

>  <MolecularWeight>
392.491

>  <ModifiedDate>
2011-06-04

>  <Parent>


>  <OneLetterCode>


>  <SubcomponentList>


>  <AmbiguousFlag>
N

>  <InChI>
InChI=1S/C16H29N3O6S/c1-2-3-4-5-8-26-10-12(15(23)18-9-14(21)22)19-13(20)7-6-11(17)16(24)25/h11-12H,2-10,17H2,1H3,(H,18,23)(H,19,20)(H,21,22)(H,24,25)/p+1/t11-,12-/m0/s1

>  <InChIKey>
HXJDWCWJDCOHDG-RYUDHWBXSA-O

>  <SMILES>
CCCCCCSC[C@@H](C(=O)NCC(=O)O)NC(=O)CC[C@@H](C(=O)O)[NH3+]

$$$$
