2J77_NOJ_A_1446
  RCSB PDB08012017163D
Coordinates from PDB:2J77:A:1446 Model:1 without hydrogens
 11 11  0  0  0  0            999 V2000
   -0.9120   11.1330   10.9470   C 0  0  0  0  0  0  0  0  0  0  0  0
    0.1350   11.6360    9.9430   C 0  0  0  0  0  0  0  0  0  0  0  0
    0.4720   12.9340   10.3860   O 0  0  0  0  0  0  0  0  0  0  0  0
   -0.4860   11.7580    8.5440   C 0  0  0  0  0  0  0  0  0  0  0  0
    0.5770   12.0530    7.6640   O 0  0  0  0  0  0  0  0  0  0  0  0
   -1.3080   10.5040    8.1440   C 0  0  0  0  0  0  0  0  0  0  0  0
   -1.7400   10.7230    6.8160   O 0  0  0  0  0  0  0  0  0  0  0  0
   -2.4700   10.3840    9.1460   C 0  0  0  0  0  0  0  0  0  0  0  0
   -1.8910   10.1580   10.4680   N 0  0  0  0  0  0  0  0  0  0  0  0
   -3.4120    9.1980    8.8830   C 0  0  0  0  0  0  0  0  0  0  0  0
   -2.7160    7.9670    9.0060   O 0  0  0  0  0  0  0  0  0  0  0  0
  1  2  1  0  0  0  0
  1  9  1  0  0  0  0
  2  3  1  0  0  0  0
  2  4  1  0  0  0  0
  4  5  1  0  0  0  0
  4  6  1  0  0  0  0
  6  7  1  0  0  0  0
  6  8  1  0  0  0  0
  8  9  1  0  0  0  0
  8 10  1  0  0  0  0
 10 11  1  0  0  0  0
M  END
>  <InstanceId>
2J77_NOJ_A_1446

>  <ChemCompId>
NOJ

>  <PdbId>
2J77

>  <ChainId>
A

>  <ResidueNumber>
1446

>  <InsertionCode>


>  <Model>
1

>  <AltIds>


>  <MissingHeavyAtoms>
0

>  <ObservedFormula>
C6 N O4

>  <Name>
1-DEOXYNOJIRIMYCIN

>  <SystematicName>
(2R,3R,4R,5S)-2-(hydroxymethyl)piperidine-3,4,5-triol

>  <Synonyms>
MORANOLINE

>  <Type>
NON-POLYMER

>  <Formula>
C6 H13 N O4

>  <MolecularWeight>
163.172

>  <ModifiedDate>
2011-06-04

>  <Parent>


>  <OneLetterCode>


>  <SubcomponentList>


>  <AmbiguousFlag>
N

>  <InChI>
InChI=1S/C6H13NO4/c8-2-3-5(10)6(11)4(9)1-7-3/h3-11H,1-2H2/t3-,4+,5-,6-/m1/s1

>  <InChIKey>
LXBIFEVIBLOUGU-JGWLITMVSA-N

>  <SMILES>
C1[C@@H]([C@H]([C@@H]([C@H](N1)CO)O)O)O

$$$$
