1MSN_JE2_B_1001
  RCSB PDB08012015293D
Coordinates from PDB:1MSN:B:1001 Model:1 without hydrogens
 41 44  0  0  0  0            999 V2000
   10.3500   18.0310   18.6630   C 0  0  0  0  0  0  0  0  0  0  0  0
   10.3960   18.7610   17.4600   C 0  0  0  0  0  0  0  0  0  0  0  0
   11.5060   19.5930   17.1860   C 0  0  0  0  0  0  0  0  0  0  0  0
   12.5940   19.6940   18.1060   C 0  0  0  0  0  0  0  0  0  0  0  0
   12.5390   18.9480   19.3440   C 0  0  0  0  0  0  0  0  0  0  0  0
   11.4110   18.1140   19.5870   C 0  0  0  0  0  0  0  0  0  0  0  0
   13.6480   18.9920   20.3890   C 0  0  0  0  0  0  0  0  0  0  0  0
   13.7390   20.5840   17.7660   C 0  0  0  0  0  0  0  0  0  0  0  0
   11.3410   17.3920   20.7560   O 0  0  0  0  0  0  0  0  0  0  0  0
   14.9150   20.2110   17.7640   O 0  0  0  0  0  0  0  0  0  0  0  0
   15.8930   24.5330   18.3050   C 0  0  0  0  0  0  0  0  0  0  0  0
   13.4000   21.8680   17.4450   N 0  0  0  0  0  0  0  0  0  0  0  0
   15.9160   25.7360   18.0550   O 0  0  0  0  0  0  0  0  0  0  0  0
   14.5290   23.7930   18.2960   C 0  0  0  0  0  0  0  0  0  0  0  0
   13.8110   22.5640   14.6120   C 0  0  0  0  0  0  0  0  0  0  0  0
   13.9120   23.5650   15.7410   C 0  0  0  0  0  0  0  0  0  0  0  0
   13.6370   20.6650   12.5020   C 0  0  0  0  0  0  0  0  0  0  0  0
   14.3870   22.8850   17.0580   C 0  0  0  0  0  0  0  0  0  0  0  0
   13.4910   24.7440   18.2910   O 0  0  0  0  0  0  0  0  0  0  0  0
   14.9290   22.3090   13.7810   C 0  0  0  0  0  0  0  0  0  0  0  0
   12.6010   21.8560   14.3720   C 0  0  0  0  0  0  0  0  0  0  0  0
   14.8450   21.3630   12.7280   C 0  0  0  0  0  0  0  0  0  0  0  0
   12.5140   20.9110   13.3250   C 0  0  0  0  0  0  0  0  0  0  0  0
   18.9290   24.2670   17.2260   C 0  0  0  0  0  0  0  0  0  0  0  0
   17.0170   23.7990   18.5890   N 0  0  0  0  0  0  0  0  0  0  0  0
   18.6740   23.2280   16.6140   O 0  0  0  0  0  0  0  0  0  0  0  0
   18.3080   24.5330   18.6190   C 0  0  0  0  0  0  0  0  0  0  0  0
   19.1570   24.0320   19.8400   C 0  0  0  0  0  0  0  0  0  0  0  0
   16.9620   22.8240   19.7290   C 0  0  0  0  0  0  0  0  0  0  0  0
   18.8180   24.7880   21.1480   C 0  0  0  0  0  0  0  0  0  0  0  0
   20.6800   24.0820   19.6000   C 0  0  0  0  0  0  0  0  0  0  0  0
   18.6540   22.3260   19.9950   S 0  0  0  0  0  0  0  0  0  0  0  0
   19.7400   25.2500   16.7910   N 0  0  0  0  0  0  0  0  0  0  0  0
   20.4070   25.1510   15.5020   C 0  0  0  0  0  0  0  0  0  0  0  0
   20.7450   26.5100   14.9660   C 0  0  0  0  0  0  0  0  0  0  0  0
   19.8050   27.2920   14.2150   C 0  0  0  0  0  0  0  0  0  0  0  0
   20.1990   28.5730   13.7370   C 0  0  0  0  0  0  0  0  0  0  0  0
   21.4830   29.0850   14.0180   C 0  0  0  0  0  0  0  0  0  0  0  0
   22.4040   28.3180   14.7600   C 0  0  0  0  0  0  0  0  0  0  0  0
   22.0310   27.0430   15.2400   C 0  0  0  0  0  0  0  0  0  0  0  0
   18.4160   26.7930   13.8880   C 0  0  0  0  0  0  0  0  0  0  0  0
  6  9  1  0  0  0  0
  6  1  2  0  0  0  0
  6  5  1  0  0  0  0
  1  2  1  0  0  0  0
  2  3  2  0  0  0  0
  3  4  1  0  0  0  0
  4  5  2  0  0  0  0
  4  8  1  0  0  0  0
  5  7  1  0  0  0  0
  8 10  2  0  0  0  0
  8 12  1  0  0  0  0
 12 18  1  0  0  0  0
 18 16  1  0  0  0  0
 18 14  1  0  0  0  0
 16 15  1  0  0  0  0
 15 20  2  0  0  0  0
 15 21  1  0  0  0  0
 20 22  1  0  0  0  0
 22 17  2  0  0  0  0
 17 23  1  0  0  0  0
 23 21  2  0  0  0  0
 14 19  1  0  0  0  0
 14 11  1  0  0  0  0
 11 13  2  0  0  0  0
 11 25  1  0  0  0  0
 25 29  1  0  0  0  0
 25 27  1  0  0  0  0
 29 32  1  0  0  0  0
 32 28  1  0  0  0  0
 28 30  1  0  0  0  0
 28 31  1  0  0  0  0
 28 27  1  0  0  0  0
 27 24  1  0  0  0  0
 24 26  2  0  0  0  0
 24 33  1  0  0  0  0
 33 34  1  0  0  0  0
 34 35  1  0  0  0  0
 35 36  2  0  0  0  0
 35 40  1  0  0  0  0
 36 37  1  0  0  0  0
 36 41  1  0  0  0  0
 37 38  2  0  0  0  0
 38 39  1  0  0  0  0
 39 40  2  0  0  0  0
M  END
>  <InstanceId>
1MSN_JE2_B_1001

>  <ChemCompId>
JE2

>  <PdbId>
1MSN

>  <ChainId>
B

>  <ResidueNumber>
1001

>  <InsertionCode>


>  <Model>
1

>  <AltIds>


>  <MissingHeavyAtoms>
0

>  <ObservedFormula>
C32 N3 O5 S

>  <Name>
(4R)-3-{(2S,3S)-2-hydroxy-3-[(3-hydroxy-2-methylbenzoyl)amino]-4-phenylbutanoyl}-5,5-dimethyl-N-(2-methylbenzyl)-1,3-thiazolidine-4-carboxamide

>  <SystematicName>
(4R)-3-[(2S,3S)-2-hydroxy-3-[(3-hydroxy-2-methyl-phenyl)carbonylamino]-4-phenyl-butanoyl]-5,5-dimethyl-N-[(2-methylphenyl)methyl]-1,3-thiazolidine-4-carboxamide

>  <Synonyms>
JE-2147; AG1776; KNI-764

>  <Type>
peptide-like

>  <Formula>
C32 H37 N3 O5 S

>  <MolecularWeight>
575.718

>  <ModifiedDate>
2020-05-27

>  <Parent>


>  <OneLetterCode>


>  <SubcomponentList>
PF0 005 00B KNN

>  <AmbiguousFlag>
N

>  <InChI>
InChI=1S/C32H37N3O5S/c1-20-11-8-9-14-23(20)18-33-30(39)28-32(3,4)41-19-35(28)31(40)27(37)25(17-22-12-6-5-7-13-22)34-29(38)24-15-10-16-26(36)21(24)2/h5-16,25,27-28,36-37H,17-19H2,1-4H3,(H,33,39)(H,34,38)/t25-,27-,28+/m0/s1

>  <InChIKey>
CUFQBQOBLVLKRF-RZDMPUFOSA-N

>  <SMILES>
Cc1ccccc1CNC(=O)[C@@H]2C(SCN2C(=O)[C@H]([C@H](Cc3ccccc3)NC(=O)c4cccc(c4C)O)O)(C)C

$$$$
