3EXH_TPP_A_1502
  RCSB PDB08012018583D
Coordinates from PDB:3EXH:A:1502 Model:1 without hydrogens
 26 27  0  0  0  0            999 V2000
  -35.5910   59.8340   18.2730   N 0  0  0  0  0  0  0  0  0  0  0  0
  -36.3630   60.8080   17.7070   C 0  0  0  0  0  0  0  0  0  0  0  0
  -36.7100   60.7030   16.2260   C 0  0  0  0  0  0  0  0  0  0  0  0
  -36.7840   61.8670   18.5180   N 0  0  0  0  0  0  0  0  0  0  0  0
  -36.4650   61.9530   19.8530   C 0  0  0  0  0  0  0  0  0  0  0  0
  -36.9290   62.9790   20.5490   N 0  0  0  0  0  0  0  0  0  0  0  0
  -35.6930   60.9360   20.3950   C 0  0  0  0  0  0  0  0  0  0  0  0
  -35.2740   59.9100   19.5860   C 0  0  0  0  0  0  0  0  0  0  0  0
  -35.2610   60.8580   21.8430   C 0  0  0  0  0  0  0  0  0  0  0  0
  -34.2330   61.8390   22.0630   N 0  3  0  0  0  0  0  0  0  0  0  0
  -34.6120   63.0970   22.5250   C 0  0  0  0  0  0  0  0  0  0  0  0
  -33.3330   64.0530   22.7160   S 0  0  0  0  0  0  0  0  0  0  0  0
  -32.2600   62.9440   22.1900   C 0  0  0  0  0  0  0  0  0  0  0  0
  -32.8600   61.7300   21.8470   C 0  0  0  0  0  0  0  0  0  0  0  0
  -32.0990   60.5320   21.3760   C 0  0  0  0  0  0  0  0  0  0  0  0
  -30.8240   63.3900   22.1410   C 0  0  0  0  0  0  0  0  0  0  0  0
  -30.7010   64.4200   21.0050   C 0  0  0  0  0  0  0  0  0  0  0  0
  -29.5640   65.2280   21.2370   O 0  0  0  0  0  0  0  0  0  0  0  0
  -28.9320   66.4240   20.3610   P 0  0  0  0  0  0  0  0  0  0  0  0
  -29.5110   66.5620   18.9650   O 0  0  0  0  0  0  0  0  0  0  0  0
  -27.4460   66.3520   20.3680   O 0  0  0  0  0  0  0  0  0  0  0  0
  -29.5460   67.7490   21.0430   O 0  0  0  0  0  0  0  0  0  0  0  0
  -29.2770   68.2870   22.5540   P 0  0  0  0  0  0  0  0  0  0  0  0
  -27.8410   67.9890   22.8620   O 0  0  0  0  0  0  0  0  0  0  0  0
  -29.4030   69.7950   22.4560   O 0  0  0  0  0  0  0  0  0  0  0  0
  -30.2160   67.7140   23.5590   O 0  0  0  0  0  0  0  0  0  0  0  0
  1  2  2  0  0  0  0
  1  8  1  0  0  0  0
  2  3  1  0  0  0  0
  2  4  1  0  0  0  0
  4  5  2  0  0  0  0
  5  6  1  0  0  0  0
  5  7  1  0  0  0  0
  7  8  2  0  0  0  0
  7  9  1  0  0  0  0
  9 10  1  0  0  0  0
 10 11  2  0  0  0  0
 10 14  1  0  0  0  0
 11 12  1  0  0  0  0
 12 13  1  0  0  0  0
 13 14  2  0  0  0  0
 13 16  1  0  0  0  0
 14 15  1  0  0  0  0
 16 17  1  0  0  0  0
 17 18  1  0  0  0  0
 18 19  1  0  0  0  0
 19 20  2  0  0  0  0
 19 21  1  0  0  0  0
 19 22  1  0  0  0  0
 22 23  1  0  0  0  0
 23 24  2  0  0  0  0
 23 25  1  0  0  0  0
 23 26  1  0  0  0  0
M  CHG  1  10   1
M  END
>  <InstanceId>
3EXH_TPP_A_1502

>  <ChemCompId>
TPP

>  <PdbId>
3EXH

>  <ChainId>
A

>  <ResidueNumber>
1502

>  <InsertionCode>


>  <Model>
1

>  <AltIds>


>  <MissingHeavyAtoms>
0

>  <ObservedFormula>
C12 N4 O7 P2 S

>  <Name>
THIAMINE DIPHOSPHATE

>  <SystematicName>
2-[3-[(4-amino-2-methyl-pyrimidin-5-yl)methyl]-4-methyl-1,3-thiazol-3-ium-5-yl]ethyl phosphono hydrogen phosphate

>  <Synonyms>


>  <Type>
NON-POLYMER

>  <Formula>
C12 H19 N4 O7 P2 S

>  <MolecularWeight>
425.314

>  <ModifiedDate>
2011-06-04

>  <Parent>


>  <OneLetterCode>


>  <SubcomponentList>


>  <AmbiguousFlag>
N

>  <InChI>
InChI=1S/C12H18N4O7P2S/c1-8-11(3-4-22-25(20,21)23-24(17,18)19)26-7-16(8)6-10-5-14-9(2)15-12(10)13/h5,7H,3-4,6H2,1-2H3,(H4-,13,14,15,17,18,19,20,21)/p+1

>  <InChIKey>
AYEKOFBPNLCAJY-UHFFFAOYSA-O

>  <SMILES>
Cc1c(sc[n+]1Cc2cnc(nc2N)C)CCO[P@](=O)(O)OP(=O)(O)O

$$$$
