5NLK_92E_A_1201
  RCSB PDB08022002333D
Coordinates from PDB:5NLK:A:1201 Model:1 without hydrogens
 33 35  0  0  0  0            999 V2000
   13.5950   16.9720    8.7760   C 0  0  0  0  0  0  0  0  0  0  0  0
   14.6700    8.6080   13.4050   C 0  0  0  0  0  0  0  0  0  0  0  0
    6.4080   12.0500    9.3140   C 0  0  0  0  0  0  0  0  0  0  0  0
   17.8690    8.0400    3.4450   C 0  0  0  0  0  0  0  0  0  0  0  0
   17.1120    8.4370    2.4160   C 0  0  0  0  0  0  0  0  0  0  0  0
   17.2530    8.3530    4.5930   C 0  0  0  0  0  0  0  0  0  0  0  0
    8.2250   15.3520    8.9220   C 0  0  0  0  0  0  0  0  0  0  0  0
    9.5490   15.7880    8.8550   C 0  0  0  0  0  0  0  0  0  0  0  0
   14.9780    9.2810    8.7550   C 0  0  0  0  0  0  0  0  0  0  0  0
   13.3390   10.7530    9.7240   C 0  0  0  0  0  0  0  0  0  0  0  0
   13.8900   10.9020    7.3810   C 0  0  0  0  0  0  0  0  0  0  0  0
    9.0020   13.0970    9.2330   C 0  0  0  0  0  0  0  0  0  0  0  0
   12.0920   16.6860    8.7990   C 0  0  0  0  0  0  0  0  0  0  0  0
   14.2810    9.5570   12.2630   C 0  0  0  0  0  0  0  0  0  0  0  0
    6.6240   13.5630    9.1580   C 0  0  0  0  0  0  0  0  0  0  0  0
   12.2250   12.4140    8.2990   C 0  0  0  0  0  0  0  0  0  0  0  0
   15.1940    9.4160    5.1830   C 0  0  0  0  0  0  0  0  0  0  0  0
   14.2650    9.7110    9.8720   C 0  0  0  0  0  0  0  0  0  0  0  0
   14.7990    9.8470    7.5000   C 0  0  0  0  0  0  0  0  0  0  0  0
    7.9480   14.0010    9.1100   C 0  0  0  0  0  0  0  0  0  0  0  0
   13.1510   11.3670    8.4820   C 0  0  0  0  0  0  0  0  0  0  0  0
   10.3330   13.5170    9.1680   C 0  0  0  0  0  0  0  0  0  0  0  0
   10.6020   14.8840    8.9830   C 0  0  0  0  0  0  0  0  0  0  0  0
   16.0990    8.9470    4.3030   C 0  0  0  0  0  0  0  0  0  0  0  0
   14.5250    9.0520   11.0260   N 0  0  0  0  0  0  0  0  0  0  0  0
   15.5660    9.3710    6.4890   N 0  0  0  0  0  0  0  0  0  0  0  0
   11.3310   12.6100    9.2940   N 0  0  0  0  0  0  0  0  0  0  0  0
   13.7990   10.6600   12.5270   O 0  0  0  0  0  0  0  0  0  0  0  0
    5.6770   14.3360    9.0290   O 0  0  0  0  0  0  0  0  0  0  0  0
   12.2260   13.0680    7.2590   O 0  0  0  0  0  0  0  0  0  0  0  0
   14.1190    9.8440    4.7640   O 0  0  0  0  0  0  0  0  0  0  0  0
   11.9090   15.2720    8.9270   O 0  0  0  0  0  0  0  0  0  0  0  0
   15.9550    9.0290    2.9530   O 0  0  0  0  0  0  0  0  0  0  0  0
  5 33  1  0  0  0  0
  5  4  2  0  0  0  0
 33 24  1  0  0  0  0
  4  6  1  0  0  0  0
 24  6  2  0  0  0  0
 24 17  1  0  0  0  0
 31 17  2  0  0  0  0
 17 26  1  0  0  0  0
 26 19  1  0  0  0  0
 30 16  2  0  0  0  0
 11 19  2  0  0  0  0
 11 21  1  0  0  0  0
 19  9  1  0  0  0  0
 16 21  1  0  0  0  0
 16 27  1  0  0  0  0
 21 10  2  0  0  0  0
  9 18  2  0  0  0  0
  1 13  1  0  0  0  0
 13 32  1  0  0  0  0
  8  7  2  0  0  0  0
  8 23  1  0  0  0  0
  7 20  1  0  0  0  0
 32 23  1  0  0  0  0
 23 22  2  0  0  0  0
 29 15  2  0  0  0  0
 20 15  1  0  0  0  0
 20 12  2  0  0  0  0
 15  3  1  0  0  0  0
 22 12  1  0  0  0  0
 22 27  1  0  0  0  0
 10 18  1  0  0  0  0
 18 25  1  0  0  0  0
 25 14  1  0  0  0  0
 14 28  2  0  0  0  0
 14  2  1  0  0  0  0
M  END
>  <InstanceId>
5NLK_92E_A_1201

>  <ChemCompId>
92E

>  <PdbId>
5NLK

>  <ChainId>
A

>  <ResidueNumber>
1201

>  <InsertionCode>


>  <Model>
1

>  <AltIds>


>  <MissingHeavyAtoms>
0

>  <ObservedFormula>
C24 N3 O6

>  <Name>
~{N}-[3-acetamido-5-[(5-ethanoyl-2-ethoxy-phenyl)carbamoyl]phenyl]furan-2-carboxamide

>  <SystematicName>
~{N}-[3-acetamido-5-[(5-ethanoyl-2-ethoxy-phenyl)carbamoyl]phenyl]furan-2-carboxamide

>  <Synonyms>


>  <Type>
NON-POLYMER

>  <Formula>
C24 H23 N3 O6

>  <MolecularWeight>
449.456

>  <ModifiedDate>
2018-02-16

>  <Parent>


>  <OneLetterCode>


>  <SubcomponentList>


>  <AmbiguousFlag>
N

>  <InChI>
InChI=1S/C24H23N3O6/c1-4-32-21-8-7-16(14(2)28)12-20(21)27-23(30)17-10-18(25-15(3)29)13-19(11-17)26-24(31)22-6-5-9-33-22/h5-13H,4H2,1-3H3,(H,25,29)(H,26,31)(H,27,30)

>  <InChIKey>
CERSGKCXWDUOHE-UHFFFAOYSA-N

>  <SMILES>
CCOc1ccc(cc1NC(=O)c2cc(cc(c2)NC(=O)c3ccco3)NC(=O)C)C(=O)C

$$$$
