4IPJ_LMR_A_402
  RCSB PDB08012022033D
Coordinates from PDB:4IPJ:A:402 Model:1 without hydrogens
  9  8  0  0  0  0            999 V2000
   95.7030  -21.5420   52.2720   C 0  0  0  0  0  0  0  0  0  0  0  0
   95.4430  -22.7450   52.0020   O 0  0  0  0  0  0  0  0  0  0  0  0
   94.8080  -20.7380   52.6530   O 0  0  0  0  0  0  0  0  0  0  0  0
   97.1000  -21.0580   52.1110   C 0  0  0  0  0  0  0  0  0  0  0  0
   97.1410  -20.1260   51.0460   O 0  0  0  0  0  0  0  0  0  0  0  0
   97.5540  -20.4410   53.4350   C 0  0  0  0  0  0  0  0  0  0  0  0
   99.0520  -20.2280   53.4410   C 0  0  0  0  0  0  0  0  0  0  0  0
   99.6260  -19.5100   54.2900   O 0  0  0  0  0  0  0  0  0  0  0  0
   99.7600  -20.7860   52.5870   O 0  0  0  0  0  0  0  0  0  0  0  0
  1  2  2  0  0  0  0
  1  3  1  0  0  0  0
  1  4  1  0  0  0  0
  4  5  1  0  0  0  0
  4  6  1  0  0  0  0
  6  7  1  0  0  0  0
  7  8  1  0  0  0  0
  7  9  2  0  0  0  0
M  END
>  <InstanceId>
4IPJ_LMR_A_402

>  <ChemCompId>
LMR

>  <PdbId>
4IPJ

>  <ChainId>
A

>  <ResidueNumber>
402

>  <InsertionCode>


>  <Model>
1

>  <AltIds>


>  <MissingHeavyAtoms>
0

>  <ObservedFormula>
C4 O5

>  <Name>
(2S)-2-hydroxybutanedioic acid

>  <SystematicName>
(2S)-2-hydroxybutanedioic acid

>  <Synonyms>
L-Malate

>  <Type>
NON-POLYMER

>  <Formula>
C4 H6 O5

>  <MolecularWeight>
134.087

>  <ModifiedDate>
2011-06-04

>  <Parent>


>  <OneLetterCode>


>  <SubcomponentList>


>  <AmbiguousFlag>
N

>  <InChI>
InChI=1S/C4H6O5/c5-2(4(8)9)1-3(6)7/h2,5H,1H2,(H,6,7)(H,8,9)/t2-/m0/s1

>  <InChIKey>
BJEPYKJPYRNKOW-REOHCLBHSA-N

>  <SMILES>
C([C@@H](C(=O)O)O)C(=O)O

$$$$
