2QTT_FMC_B_269
  RCSB PDB08012017523D
Coordinates from PDB:2QTT:B:269 Model:1 without hydrogens
 19 21  0  0  0  0            999 V2000
  -19.3800  -18.7120  -26.3330   N 0  0  0  0  0  0  0  0  0  0  0  0
  -19.2430  -18.0660  -25.1520   C 0  0  0  0  0  0  0  0  0  0  0  0
  -20.0690  -18.2420  -24.0900   N 0  0  0  0  0  0  0  0  0  0  0  0
  -21.0860  -19.1190  -24.2080   C 0  0  0  0  0  0  0  0  0  0  0  0
  -21.3080  -19.8700  -25.4580   C 0  0  0  0  0  0  0  0  0  0  0  0
  -20.3650  -19.6190  -26.5660   C 0  0  0  0  0  0  0  0  0  0  0  0
  -20.4780  -20.2460  -27.7680   N 0  0  0  0  0  0  0  0  0  0  0  0
  -22.3940  -20.6460  -25.2740   N 0  0  0  0  0  0  0  0  0  0  0  0
  -22.8840  -20.4680  -23.9580   N 0  0  0  0  0  0  0  0  0  0  0  0
  -22.1580  -19.5490  -23.2670   C 0  0  0  0  0  0  0  0  0  0  0  0
  -22.3150  -19.0530  -21.8470   C 0  0  0  0  0  0  0  0  0  0  0  0
  -21.3600  -17.9890  -21.2830   C 0  0  0  0  0  0  0  0  0  0  0  0
  -20.4020  -18.5340  -20.3570   O 0  0  0  0  0  0  0  0  0  0  0  0
  -22.2740  -16.9590  -20.6320   C 0  0  0  0  0  0  0  0  0  0  0  0
  -22.4730  -17.1990  -19.2310   O 0  0  0  0  0  0  0  0  0  0  0  0
  -23.6020  -17.1280  -21.3450   C 0  0  0  0  0  0  0  0  0  0  0  0
  -23.6330  -18.5020  -21.6960   O 0  0  0  0  0  0  0  0  0  0  0  0
  -23.7230  -16.2720  -22.6080   C 0  0  0  0  0  0  0  0  0  0  0  0
  -23.6660  -14.8660  -22.2770   O 0  0  0  0  0  0  0  0  0  0  0  0
  1  2  2  0  0  0  0
  1  6  1  0  0  0  0
  2  3  1  0  0  0  0
  3  4  2  0  0  0  0
  4  5  1  0  0  0  0
  4 10  1  0  0  0  0
  5  6  2  0  0  0  0
  5  8  1  0  0  0  0
  6  7  1  0  0  0  0
  8  9  1  0  0  0  0
  9 10  2  0  0  0  0
 10 11  1  0  0  0  0
 11 12  1  0  0  0  0
 11 17  1  0  0  0  0
 12 13  1  0  0  0  0
 12 14  1  0  0  0  0
 14 15  1  0  0  0  0
 14 16  1  0  0  0  0
 16 17  1  0  0  0  0
 16 18  1  0  0  0  0
 18 19  1  0  0  0  0
M  END
>  <InstanceId>
2QTT_FMC_B_269

>  <ChemCompId>
FMC

>  <PdbId>
2QTT

>  <ChainId>
B

>  <ResidueNumber>
269

>  <InsertionCode>


>  <Model>
1

>  <AltIds>


>  <MissingHeavyAtoms>
0

>  <ObservedFormula>
C10 N5 O4

>  <Name>
(1S)-1-(7-amino-1H-pyrazolo[4,3-d]pyrimidin-3-yl)-1,4-anhydro-D-ribitol

>  <SystematicName>
(2S,3R,4S,5R)-2-(7-azanyl-1H-pyrazolo[4,3-d]pyrimidin-3-yl)-5-(hydroxymethyl)oxolane-3,4-diol

>  <Synonyms>


>  <Type>
NON-POLYMER

>  <Formula>
C10 H13 N5 O4

>  <MolecularWeight>
267.241

>  <ModifiedDate>
2011-06-04

>  <Parent>


>  <OneLetterCode>


>  <SubcomponentList>


>  <AmbiguousFlag>
N

>  <InChI>
InChI=1S/C10H13N5O4/c11-10-6-4(12-2-13-10)5(14-15-6)9-8(18)7(17)3(1-16)19-9/h2-3,7-9,16-18H,1H2,(H,14,15)(H2,11,12,13)/t3-,7-,8-,9+/m1/s1

>  <InChIKey>
KBHMEHLJSZMEMI-KSYZLYKTSA-N

>  <SMILES>
c1nc2c(c(n1)N)[nH]nc2[C@H]3[C@@H]([C@@H]([C@H](O3)CO)O)O

$$$$
