6DJ5_G52_B_201
  RCSB PDB08022004233D
Coordinates from PDB:6DJ5:B:201 Model:1 without hydrogens
 42 46  0  0  0  0            999 V2000
   20.9830   27.6060   15.0380   C 0  0  0  0  0  0  0  0  0  0  0  0
   19.6300   27.5470   14.6920   C 0  0  0  0  0  0  0  0  0  0  0  0
   18.8650   26.4170   14.9590   C 0  0  0  0  0  0  0  0  0  0  0  0
   19.4480   25.3420   15.6340   C 0  0  0  0  0  0  0  0  0  0  0  0
   20.7940   25.4020   15.9710   C 0  0  0  0  0  0  0  0  0  0  0  0
   21.5710   26.5210   15.6830   C 0  0  0  0  0  0  0  0  0  0  0  0
   18.5090   23.9090   16.0160   S 0  0  0  0  0  0  0  0  0  0  0  0
   17.4440   23.7580   14.9800   O 0  0  0  0  0  0  0  0  0  0  0  0
   19.4150   22.7230   16.0720   O 0  0  0  0  0  0  0  0  0  0  0  0
   17.8140   24.0520   17.4890   N 0  0  0  0  0  0  0  0  0  0  0  0
   18.7620   24.4740   18.5150   C 0  0  0  0  0  0  0  0  0  0  0  0
   18.5230   23.7040   19.8200   C 0  0  0  0  0  0  0  0  0  0  0  0
   18.2710   22.2150   19.5780   C 0  0  0  0  0  0  0  0  0  0  0  0
   19.6770   23.8930   20.8100   C 0  0  0  0  0  0  0  0  0  0  0  0
   16.6000   24.8640   17.4650   C 0  0  0  0  0  0  0  0  0  0  0  0
   15.4170   24.0340   17.9430   C 0  0  0  0  0  0  0  0  0  0  0  0
   14.2560   24.8170   18.1890   O 0  0  0  0  0  0  0  0  0  0  0  0
   15.0820   22.8750   17.0010   C 0  0  0  0  0  0  0  0  0  0  0  0
   14.1400   21.9800   17.6980   N 0  0  0  0  0  0  0  0  0  0  0  0
   14.3580   20.7000   17.9960   C 0  0  0  0  0  0  0  0  0  0  0  0
   15.4050   20.1090   17.7310   O 0  0  0  0  0  0  0  0  0  0  0  0
   13.3390   20.0450   18.6220   O 0  0  0  0  0  0  0  0  0  0  0  0
   13.6370   18.6660   18.8500   C 0  0  0  0  0  0  0  0  0  0  0  0
   13.2050   18.3390   20.2830   C 0  0  0  0  0  0  0  0  0  0  0  0
   11.7720   18.3190   20.2330   O 0  0  0  0  0  0  0  0  0  0  0  0
   11.3740   17.9240   18.9240   C 0  0  0  0  0  0  0  0  0  0  0  0
   10.5200   18.9000   18.3520   O 0  0  0  0  0  0  0  0  0  0  0  0
   11.0120   19.3520   17.0990   C 0  0  0  0  0  0  0  0  0  0  0  0
   12.2130   18.4950   16.7360   C 0  0  0  0  0  0  0  0  0  0  0  0
   12.6160   17.8350   18.0580   C 0  0  0  0  0  0  0  0  0  0  0  0
   14.3640   23.3830   15.7390   C 0  0  0  0  0  0  0  0  0  0  0  0
   12.7270   21.7120   14.7900   C 0  0  0  0  0  0  0  0  0  0  0  0
   12.4080   20.6320   13.9800   C 0  0  0  0  0  0  0  0  0  0  0  0
   13.3970   20.0130   13.2200   C 0  0  0  0  0  0  0  0  0  0  0  0
   14.7030   20.4820   13.2690   C 0  0  0  0  0  0  0  0  0  0  0  0
   15.0210   21.5740   14.0760   C 0  0  0  0  0  0  0  0  0  0  0  0
   14.0330   22.1890   14.8310   C 0  0  0  0  0  0  0  0  0  0  0  0
   21.7040   28.7330   14.7830   O 0  0  0  0  0  0  0  0  0  0  0  0
   23.0930   28.5410   15.0220   C 0  0  0  0  0  0  0  0  0  0  0  0
   10.0300   19.0770   16.0870   O 0  0  0  0  0  0  0  0  0  0  0  0
   10.1220   17.6540   15.8880   C 0  0  0  0  0  0  0  0  0  0  0  0
   11.6310   17.4420   15.7820   C 0  0  0  0  0  0  0  0  0  0  0  0
  2  1  2  0  0  0  0
 38  1  1  0  0  0  0
  1  6  1  0  0  0  0
  2  3  1  0  0  0  0
  3  4  2  0  0  0  0
  4  5  1  0  0  0  0
  4  7  1  0  0  0  0
  6  5  2  0  0  0  0
  8  7  2  0  0  0  0
  7  9  2  0  0  0  0
  7 10  1  0  0  0  0
 10 15  1  0  0  0  0
 10 11  1  0  0  0  0
 11 12  1  0  0  0  0
 13 12  1  0  0  0  0
 12 14  1  0  0  0  0
 15 16  1  0  0  0  0
 18 16  1  0  0  0  0
 16 17  1  0  0  0  0
 31 18  1  0  0  0  0
 18 19  1  0  0  0  0
 19 20  1  0  0  0  0
 21 20  2  0  0  0  0
 20 22  1  0  0  0  0
 22 23  1  0  0  0  0
 30 23  1  0  0  0  0
 23 24  1  0  0  0  0
 25 24  1  0  0  0  0
 26 25  1  0  0  0  0
 30 26  1  0  0  0  0
 27 26  1  0  0  0  0
 28 27  1  0  0  0  0
 40 28  1  0  0  0  0
 29 28  1  0  0  0  0
 42 29  1  0  0  0  0
 29 30  1  0  0  0  0
 37 31  1  0  0  0  0
 33 32  2  0  0  0  0
 32 37  1  0  0  0  0
 34 33  1  0  0  0  0
 34 35  2  0  0  0  0
 35 36  1  0  0  0  0
 36 37  2  0  0  0  0
 38 39  1  0  0  0  0
 41 40  1  0  0  0  0
 42 41  1  0  0  0  0
M  END
>  <InstanceId>
6DJ5_G52_B_201

>  <ChemCompId>
G52

>  <PdbId>
6DJ5

>  <ChainId>
B

>  <ResidueNumber>
201

>  <InsertionCode>


>  <Model>
1

>  <AltIds>


>  <MissingHeavyAtoms>
0

>  <ObservedFormula>
C30 N2 O9 S

>  <Name>
(3R,3aS,3bR,6aS,7aS)-octahydrodifuro[2,3-b:3',2'-d]furan-3-yl [(1S,2R)-1-benzyl-2-hydroxy-3-{[(4-methoxyphenyl)sulfonyl](2-methylpropyl)amino}propyl]carbamate

>  <SystematicName>


>  <Synonyms>


>  <Type>
NON-POLYMER

>  <Formula>
C30 H40 N2 O9 S

>  <MolecularWeight>
604.712

>  <ModifiedDate>
2011-06-04

>  <Parent>


>  <OneLetterCode>


>  <SubcomponentList>


>  <AmbiguousFlag>
N

>  <InChI>
InChI=1S/C30H40N2O9S/c1-19(2)16-32(42(35,36)22-11-9-21(37-3)10-12-22)17-25(33)24(15-20-7-5-4-6-8-20)31-30(34)40-26-18-39-29-27(26)23-13-14-38-28(23)41-29/h4-12,19,23-29,33H,13-18H2,1-3H3,(H,31,34)/t23-,24+,25-,26+,27+,28+,29+/m1/s1

>  <InChIKey>
QWMNYFXRFHGYGS-DDGGWZRMSA-N

>  <SMILES>
CC(C)C[N@@](C[C@H]([C@H](Cc1ccccc1)NC(=O)O[C@H]2CO[C@@H]3[C@H]2[C@H]4CCO[C@H]4O3)O)S(=O)(=O)c5ccc(cc5)OC

$$$$
