3SLZ_3TL_A_126
  RCSB PDB08012020283D
Coordinates from PDB:3SLZ:A:126 Model:1 without hydrogens
 66 69  0  0  0  0            999 V2000
   -0.2550    2.4820   18.3190   C 0  0  0  0  0  0  0  0  0  0  0  0
   -1.0730    3.3600   18.5020   O 0  0  0  0  0  0  0  0  0  0  0  0
    0.0500    1.7380   19.3960   O 0  0  0  0  0  0  0  0  0  0  0  0
   -0.9680    1.0670   20.1750   C 0  0  0  0  0  0  0  0  0  0  0  0
   -0.4040    0.4340   21.4100   C 0  0  0  0  0  0  0  0  0  0  0  0
   -1.2590   -0.0130   22.4110   C 0  0  0  0  0  0  0  0  0  0  0  0
   -0.7130   -0.5990   23.5680   C 0  0  0  0  0  0  0  0  0  0  0  0
    0.6680   -0.7450   23.7420   C 0  0  0  0  0  0  0  0  0  0  0  0
    1.5270   -0.2950   22.7370   C 0  0  0  0  0  0  0  0  0  0  0  0
    0.9690    0.2810   21.6000   C 0  0  0  0  0  0  0  0  0  0  0  0
    0.5480    2.3680   17.2720   N 0  0  0  0  0  0  0  0  0  0  0  0
    0.3560    3.0440   16.1390   C 0  0  0  0  0  0  0  0  0  0  0  0
   -0.4840    2.2110   15.2050   C 0  0  0  0  0  0  0  0  0  0  0  0
   -0.0090    1.0670   14.8120   O 0  0  0  0  0  0  0  0  0  0  0  0
    1.7230    3.1960   15.5350   C 0  0  0  0  0  0  0  0  0  0  0  0
   -1.6290    2.6680   14.8370   N 0  0  0  0  0  0  0  0  0  0  0  0
   -2.6200    2.0030   14.0030   C 0  0  0  0  0  0  0  0  0  0  0  0
   -2.8020    2.8180   12.7660   C 0  0  0  0  0  0  0  0  0  0  0  0
   -3.7160    3.7240   12.8370   O 0  0  0  0  0  0  0  0  0  0  0  0
   -3.8750    1.7020   14.8000   C 0  0  0  0  0  0  0  0  0  0  0  0
   -3.6120    0.8800   16.0800   C 0  0  0  0  0  0  0  0  0  0  0  0
   -4.9240    0.9990   13.9240   C 0  0  0  0  0  0  0  0  0  0  0  0
   -2.5730    2.5420    9.2430   C 0  0  0  0  0  0  0  0  0  0  0  0
   -1.3820    1.8160    9.0230   O 0  0  0  0  0  0  0  0  0  0  0  0
   -2.3370    3.4280   10.4230   C 0  0  0  0  0  0  0  0  0  0  0  0
   -2.1430    2.5900   11.6460   N 0  0  0  0  0  0  0  0  0  0  0  0
   -1.1450    4.3200   10.0210   C 0  0  0  0  0  0  0  0  0  0  0  0
   -0.4240    4.8260   11.2020   C 0  0  0  0  0  0  0  0  0  0  0  0
   -1.0050    5.8930   11.8920   C 0  0  0  0  0  0  0  0  0  0  0  0
    0.7870    4.2420   11.5920   C 0  0  0  0  0  0  0  0  0  0  0  0
   -0.3800    6.3930   13.0200   C 0  0  0  0  0  0  0  0  0  0  0  0
    1.4170    4.7580   12.7210   C 0  0  0  0  0  0  0  0  0  0  0  0
    0.8190    5.8140   13.4270   C 0  0  0  0  0  0  0  0  0  0  0  0
   -5.3210    2.9830    7.9450   N 0  0  0  0  0  0  0  0  0  0  0  0
   -5.0700    2.3090    9.2130   C 0  0  0  0  0  0  0  0  0  0  0  0
   -3.7230    1.6320    9.3650   C 0  0  0  0  0  0  0  0  0  0  0  0
   -3.4440    0.6710    8.3610   O 0  0  0  0  0  0  0  0  0  0  0  0
   -6.0450    1.1750    9.3810   C 0  0  0  0  0  0  0  0  0  0  0  0
   -7.3820    1.7230    9.2080   C 0  0  0  0  0  0  0  0  0  0  0  0
   -8.1450    1.3010    8.1320   C 0  0  0  0  0  0  0  0  0  0  0  0
   -7.8590    2.6990   10.0900   C 0  0  0  0  0  0  0  0  0  0  0  0
   -9.4200    1.8540    7.9720   C 0  0  0  0  0  0  0  0  0  0  0  0
   -9.1280    3.2640    9.9250   C 0  0  0  0  0  0  0  0  0  0  0  0
   -9.9090    2.8350    8.8440   C 0  0  0  0  0  0  0  0  0  0  0  0
   -7.2350    5.0720    6.1030   N 0  0  0  0  0  0  0  0  0  0  0  0
   -5.8480    4.7220    6.3240   C 0  0  0  0  0  0  0  0  0  0  0  0
   -5.6370    4.1850    7.7340   C 0  0  0  0  0  0  0  0  0  0  0  0
   -5.7200    5.0450    8.7340   O 0  0  0  0  0  0  0  0  0  0  0  0
   -4.9740    5.9340    5.9810   C 0  0  0  0  0  0  0  0  0  0  0  0
   -3.5090    5.8440    6.4320   C 0  0  0  0  0  0  0  0  0  0  0  0
   -5.0840    6.4920    4.5340   C 0  0  0  0  0  0  0  0  0  0  0  0
   -9.4700    5.3860    3.6890   N 0  0  0  0  0  0  0  0  0  0  0  0
   -9.3530    4.8900    4.8280   C 0  0  0  0  0  0  0  0  0  0  0  0
   -7.9350    4.6360    5.1350   C 0  0  0  0  0  0  0  0  0  0  0  0
   -7.3420    3.7820    4.3130   O 0  0  0  0  0  0  0  0  0  0  0  0
  -10.3410    3.7560    5.0940   C 0  0  0  0  0  0  0  0  0  0  0  0
   -9.5620    6.6620    3.4000   C 0  0  0  0  0  0  0  0  0  0  0  0
   -9.3970    7.5160    4.2920   O 0  0  0  0  0  0  0  0  0  0  0  0
   -9.5390    7.0090    2.1430   O 0  0  0  0  0  0  0  0  0  0  0  0
   -8.5930    8.0030    1.6590   C 0  0  0  0  0  0  0  0  0  0  0  0
   -8.6220    8.2800    0.1840   C 0  0  0  0  0  0  0  0  0  0  0  0
   -9.4490    9.2540   -0.3950   C 0  0  0  0  0  0  0  0  0  0  0  0
   -9.4460    9.4570   -1.7800   C 0  0  0  0  0  0  0  0  0  0  0  0
   -8.6140    8.6670   -2.5860   C 0  0  0  0  0  0  0  0  0  0  0  0
   -7.7980    7.6840   -2.0240   C 0  0  0  0  0  0  0  0  0  0  0  0
   -7.8080    7.5020   -0.6420   C 0  0  0  0  0  0  0  0  0  0  0  0
  1  2  2  0  0  0  0
  1  3  1  0  0  0  0
  1 11  1  0  0  0  0
  3  4  1  0  0  0  0
  4  5  1  0  0  0  0
  5  6  2  0  0  0  0
  5 10  1  0  0  0  0
  6  7  1  0  0  0  0
  7  8  2  0  0  0  0
  8  9  1  0  0  0  0
  9 10  2  0  0  0  0
 11 12  1  0  0  0  0
 12 13  1  0  0  0  0
 12 15  1  0  0  0  0
 13 14  2  0  0  0  0
 13 16  1  0  0  0  0
 16 17  1  0  0  0  0
 17 18  1  0  0  0  0
 17 20  1  0  0  0  0
 18 19  2  0  0  0  0
 18 26  1  0  0  0  0
 20 21  1  0  0  0  0
 20 22  1  0  0  0  0
 23 24  1  0  0  0  0
 23 25  1  0  0  0  0
 23 36  1  0  0  0  0
 25 26  1  0  0  0  0
 25 27  1  0  0  0  0
 27 28  1  0  0  0  0
 28 29  2  0  0  0  0
 28 30  1  0  0  0  0
 29 31  1  0  0  0  0
 30 32  2  0  0  0  0
 31 33  2  0  0  0  0
 32 33  1  0  0  0  0
 34 35  1  0  0  0  0
 34 47  1  0  0  0  0
 35 36  1  0  0  0  0
 35 38  1  0  0  0  0
 36 37  1  0  0  0  0
 38 39  1  0  0  0  0
 39 40  2  0  0  0  0
 39 41  1  0  0  0  0
 40 42  1  0  0  0  0
 41 43  2  0  0  0  0
 42 44  2  0  0  0  0
 43 44  1  0  0  0  0
 45 46  1  0  0  0  0
 45 54  1  0  0  0  0
 46 47  1  0  0  0  0
 46 49  1  0  0  0  0
 47 48  2  0  0  0  0
 49 50  1  0  0  0  0
 49 51  1  0  0  0  0
 52 53  1  0  0  0  0
 52 57  1  0  0  0  0
 53 54  1  0  0  0  0
 53 56  1  0  0  0  0
 54 55  2  0  0  0  0
 57 58  2  0  0  0  0
 57 59  1  0  0  0  0
 59 60  1  0  0  0  0
 60 61  1  0  0  0  0
 61 62  2  0  0  0  0
 61 66  1  0  0  0  0
 62 63  1  0  0  0  0
 63 64  2  0  0  0  0
 64 65  1  0  0  0  0
 65 66  2  0  0  0  0
M  END
>  <InstanceId>
3SLZ_3TL_A_126

>  <ChemCompId>
3TL

>  <PdbId>
3SLZ

>  <ChainId>
A

>  <ResidueNumber>
126

>  <InsertionCode>


>  <Model>
1

>  <AltIds>


>  <MissingHeavyAtoms>
0

>  <ObservedFormula>
C50 N6 O10

>  <Name>
benzyl [(1S,4S,7S,8R,9R,10S,13S,16S)-7,10-dibenzyl-8,9-dihydroxy-1,16-dimethyl-4,13-bis(1-methylethyl)-2,5,12,15,18-pentaoxo-20-phenyl-19-oxa-3,6,11,14,17-pentaazaicos-1-yl]carbamate

>  <SystematicName>
phenylmethyl N-[(2S)-1-[[(2S)-1-[[(2S,3R,4R,5S)-3,4-dihydroxy-5-[[(2S)-3-methyl-2-[[(2S)-2-(phenylmethoxycarbonylamino)propanoyl]amino]butanoyl]amino]-1,6-diphenyl-hexan-2-yl]amino]-3-methyl-1-oxo-butan-2-yl]amino]-1-oxo-propan-2-yl]carbamate

>  <Synonyms>
TL-3, C2 symmetric inhibitor

>  <Type>
peptide-like

>  <Formula>
C50 H64 N6 O10

>  <MolecularWeight>
909.077

>  <ModifiedDate>
2011-06-04

>  <Parent>


>  <OneLetterCode>


>  <SubcomponentList>
PHQ ALA VAL PHL PHL VAL ALA PHQ

>  <AmbiguousFlag>
N

>  <InChI>
InChI=1S/C50H64N6O10/c1-31(2)41(55-45(59)33(5)51-49(63)65-29-37-23-15-9-16-24-37)47(61)53-39(27-35-19-11-7-12-20-35)43(57)44(58)40(28-36-21-13-8-14-22-36)54-48(62)42(32(3)4)56-46(60)34(6)52-50(64)66-30-38-25-17-10-18-26-38/h7-26,31-34,39-44,57-58H,27-30H2,1-6H3,(H,51,63)(H,52,64)(H,53,61)(H,54,62)(H,55,59)(H,56,60)/t33-,34-,39-,40-,41-,42-,43+,44+/m0/s1

>  <InChIKey>
BJJPNOGMLLUCER-KUTQPOQPSA-N

>  <SMILES>
C[C@@H](C(=O)N[C@@H](C(C)C)C(=O)N[C@@H](Cc1ccccc1)[C@H]([C@@H]([C@H](Cc2ccccc2)NC(=O)[C@H](C(C)C)NC(=O)[C@H](C)NC(=O)OCc3ccccc3)O)O)NC(=O)OCc4ccccc4

$$$$
