6EKQ_B0H_A_801
  RCSB PDB08022004323D
Coordinates from PDB:6EKQ:A:801 Model:1 without hydrogens
 24 26  0  0  0  0            999 V2000
   23.9680  -11.5330    5.4230   C 0  0  0  0  0  0  0  0  0  0  0  0
   24.8560  -15.7300    8.0390   C 0  0  0  0  0  0  0  0  0  0  0  0
   12.2080  -12.0090    6.6470   C 0  0  0  0  0  0  0  0  0  0  0  0
   15.3860  -11.6310   10.5050   C 0  0  0  0  0  0  0  0  0  0  0  0
   17.4720  -16.8940    8.3210   C 0  0  0  0  0  0  0  0  0  0  0  0
   13.7580  -11.8100    8.5990   C 0  0  0  0  0  0  0  0  0  0  0  0
   15.6630  -15.4050    7.3960   C 0  0  0  0  0  0  0  0  0  0  0  0
   14.0320  -13.6940    6.9850   C 0  0  0  0  0  0  0  0  0  0  0  0
   15.5090  -13.5250    8.8940   C 0  0  0  0  0  0  0  0  0  0  0  0
   21.7150  -15.3060    7.5470   C 0  0  0  0  0  0  0  0  0  0  0  0
   23.7410  -12.8300    6.2030   C 0  0  0  0  0  0  0  0  0  0  0  0
   17.1320  -15.7700    7.6730   C 0  0  0  0  0  0  0  0  0  0  0  0
   24.0670  -14.6300    7.3130   C 0  0  0  0  0  0  0  0  0  0  0  0
   19.3620  -15.4440    7.5700   C 0  0  0  0  0  0  0  0  0  0  0  0
   22.7370  -14.5190    7.1430   C 0  0  0  0  0  0  0  0  0  0  0  0
   13.6440  -12.2260    7.1320   C 0  0  0  0  0  0  0  0  0  0  0  0
   15.2020  -12.0450    9.0400   C 0  0  0  0  0  0  0  0  0  0  0  0
   24.6910  -13.5940    6.7370   N 0  0  0  0  0  0  0  0  0  0  0  0
   18.1520  -14.9750    7.2620   N 0  0  0  0  0  0  0  0  0  0  0  0
   20.4960  -14.7960    7.2480   N 0  0  0  0  0  0  0  0  0  0  0  0
   15.4040  -13.9530    7.4880   N 0  0  0  0  0  0  0  0  0  0  0  0
   21.8970  -16.3860    8.1110   O 0  0  0  0  0  0  0  0  0  0  0  0
   22.5270  -13.3540    6.4190   O 0  0  0  0  0  0  0  0  0  0  0  0
   19.1620  -16.9320    8.4080   S 0  0  0  0  0  0  0  0  0  0  0  0
  1 11  1  0  0  0  0
 11 18  2  0  0  0  0
 11 23  1  0  0  0  0
 18 13  1  0  0  0  0
 23 15  1  0  0  0  0
 13 15  2  0  0  0  0
 13  2  1  0  0  0  0
 15 10  1  0  0  0  0
 20 10  1  0  0  0  0
 20 14  1  0  0  0  0
 10 22  2  0  0  0  0
 19 14  2  0  0  0  0
 19 12  1  0  0  0  0
 14 24  1  0  0  0  0
  7 12  1  0  0  0  0
  7 21  1  0  0  0  0
  9 21  1  0  0  0  0
  9 17  1  0  0  0  0
 12  5  2  0  0  0  0
  4 17  1  0  0  0  0
 21  8  1  0  0  0  0
 17  6  1  0  0  0  0
 24  5  1  0  0  0  0
  8 16  1  0  0  0  0
  6 16  1  0  0  0  0
 16  3  1  0  0  0  0
M  END
>  <InstanceId>
6EKQ_B0H_A_801

>  <ChemCompId>
B0H

>  <PdbId>
6EKQ

>  <ChainId>
A

>  <ResidueNumber>
801

>  <InsertionCode>


>  <Model>
1

>  <AltIds>


>  <MissingHeavyAtoms>
0

>  <ObservedFormula>
C17 N4 O2 S

>  <Name>
~{N}-[4-[[(3~{S},5~{R})-3,5-dimethylpiperidin-1-yl]methyl]-1,3-thiazol-2-yl]-2,4-dimethyl-1,3-oxazole-5-carboxamide

>  <SystematicName>
~{N}-[4-[[(3~{S},5~{R})-3,5-dimethylpiperidin-1-yl]methyl]-1,3-thiazol-2-yl]-2,4-dimethyl-1,3-oxazole-5-carboxamide

>  <Synonyms>


>  <Type>
NON-POLYMER

>  <Formula>
C17 H24 N4 O2 S

>  <MolecularWeight>
348.463

>  <ModifiedDate>
2018-06-22

>  <Parent>


>  <OneLetterCode>


>  <SubcomponentList>


>  <AmbiguousFlag>
N

>  <InChI>
InChI=1S/C17H24N4O2S/c1-10-5-11(2)7-21(6-10)8-14-9-24-17(19-14)20-16(22)15-12(3)18-13(4)23-15/h9-11H,5-8H2,1-4H3,(H,19,20,22)/t10-,11+

>  <InChIKey>
CNBKQIUIQRBCJT-PHIMTYICSA-N

>  <SMILES>
Cc1c(oc(n1)C)C(=O)Nc2nc(cs2)CN3C[C@@H](C[C@@H](C3)C)C

$$$$
