3SU4_SU3_A_1
  RCSB PDB08012020303D
Coordinates from PDB:3SU4:A:1 Model:1 without hydrogens
 53 58  0  0  0  0            999 V2000
   37.7570   -0.3560    3.9760   C 0  0  0  0  0  0  0  0  0  0  0  0
   39.6980   -1.2750    5.0960   N 0  0  0  0  0  0  0  0  0  0  0  0
   37.9380   -0.9490    2.9150   O 0  0  0  0  0  0  0  0  0  0  0  0
   38.9260   -0.0270    4.9060   C 0  0  0  0  0  0  0  0  0  0  0  0
   39.9090    0.9630    4.2970   C 0  0  0  0  0  0  0  0  0  0  0  0
   41.2380    0.5210    4.8800   C 0  0  0  0  0  0  0  0  0  0  0  0
   39.2540   -2.4980    5.4480   C 0  0  0  0  0  0  0  0  0  0  0  0
   38.0430   -2.6120    5.6780   O 0  0  0  0  0  0  0  0  0  0  0  0
   40.1770   -3.7260    5.6260   C 0  0  0  0  0  0  0  0  0  0  0  0
   39.7950   -4.3900    6.8790   N 0  0  0  0  0  0  0  0  0  0  0  0
   40.4480   -4.2010    8.0150   C 0  0  0  0  0  0  0  0  0  0  0  0
   39.9660   -4.8910    9.0860   O 0  0  0  0  0  0  0  0  0  0  0  0
   40.0660   -4.7130    4.4330   C 0  0  0  0  0  0  0  0  0  0  0  0
   41.4380   -3.4710    8.1200   O 0  0  0  0  0  0  0  0  0  0  0  0
   41.6720    2.0630    6.5820   C 0  0  0  0  0  0  0  0  0  0  0  0
   41.9590    2.9110    5.7390   O 0  0  0  0  0  0  0  0  0  0  0  0
   41.6830    2.4520    7.8260   N 0  0  0  0  0  0  0  0  0  0  0  0
   34.1770   -2.4950    2.6780   C 0  0  0  0  0  0  0  0  0  0  0  0
   35.1490   -3.1580    1.7020   C 0  0  0  0  0  0  0  0  0  0  0  0
   38.6110   -5.1260    4.2050   C 0  0  0  0  0  0  0  0  0  0  0  0
   36.5490   -0.0160    4.4310   N 0  0  0  0  0  0  0  0  0  0  0  0
   35.3230   -0.3710    3.7110   C 0  0  0  0  0  0  0  0  0  0  0  0
   35.0470    0.3980    2.4040   C 0  0  0  0  0  0  0  0  0  0  0  0
   34.9110   -1.8360    3.8450   C 0  0  0  0  0  0  0  0  0  0  0  0
   34.1220   -0.7460    4.5700   C 0  0  0  0  0  0  0  0  0  0  0  0
   41.9760    3.7880    8.3730   C 0  0  0  0  0  0  0  0  0  0  0  0
   41.8210    3.6520    9.8630   C 0  0  0  0  0  0  0  0  0  0  0  0
   41.4910    2.3300   10.1630   C 0  0  0  0  0  0  0  0  0  0  0  0
   41.3930    1.4980    8.8900   C 0  0  0  0  0  0  0  0  0  0  0  0
   41.9520    4.5900   10.8820   C 0  0  0  0  0  0  0  0  0  0  0  0
   41.7380    4.1860   12.1840   C 0  0  0  0  0  0  0  0  0  0  0  0
   41.4160    2.8560   12.4860   C 0  0  0  0  0  0  0  0  0  0  0  0
   41.2780    1.9150   11.4710   C 0  0  0  0  0  0  0  0  0  0  0  0
   40.9460    0.4910   11.8710   C 0  0  0  0  0  0  0  0  0  0  0  0
   35.8410    1.4370    2.1500   N 0  0  0  0  0  0  0  0  0  0  0  0
   34.1160    0.0580    1.6700   O 0  0  0  0  0  0  0  0  0  0  0  0
   35.5350    2.2460    0.7700   S 0  0  0  0  0  0  0  0  0  0  0  0
   36.7810    3.5550    0.6790   C 0  0  0  0  0  0  0  0  0  0  0  0
   35.6720    1.3470   -0.4130   O 0  0  0  0  0  0  0  0  0  0  0  0
   34.1890    2.8910    0.7930   O 0  0  0  0  0  0  0  0  0  0  0  0
   36.4480    4.6580   -0.3010   C 0  0  0  0  0  0  0  0  0  0  0  0
   36.2590    4.8870    1.2080   C 0  0  0  0  0  0  0  0  0  0  0  0
   39.5330    0.0340   11.5140   C 0  0  0  0  0  0  0  0  0  0  0  0
   39.3260   -1.4170   11.9600   C 0  0  0  0  0  0  0  0  0  0  0  0
   39.8800   -2.4180   10.9220   C 0  0  0  0  0  0  0  0  0  0  0  0
   39.7790   -3.8930   11.3620   C 0  0  0  0  0  0  0  0  0  0  0  0
   40.6020   -4.6780   10.3650   C 0  0  0  0  0  0  0  0  0  0  0  0
   40.4300   -4.1080   12.7380   C 0  0  0  0  0  0  0  0  0  0  0  0
   38.3030   -4.3770   11.3840   C 0  0  0  0  0  0  0  0  0  0  0  0
   40.6070   -4.0270    3.1660   C 0  0  0  0  0  0  0  0  0  0  0  0
   40.8530   -5.9750    4.6970   C 0  0  0  0  0  0  0  0  0  0  0  0
   41.1110   -0.9860    4.8150   C 0  0  0  0  0  0  0  0  0  0  0  0
   41.3610    0.7700    6.2830   O 0  0  0  0  0  0  0  0  0  0  0  0
  1 21  1  0  0  0  0
  2  7  1  0  0  0  0
  2  4  1  0  0  0  0
  3  1  2  0  0  0  0
  4  1  1  0  0  0  0
  5  4  1  0  0  0  0
  6  5  1  0  0  0  0
  6 53  1  0  0  0  0
  7  8  2  0  0  0  0
  9  7  1  0  0  0  0
  9 10  1  0  0  0  0
 10 11  1  0  0  0  0
 11 12  1  0  0  0  0
 12 47  1  0  0  0  0
 13  9  1  0  0  0  0
 13 50  1  0  0  0  0
 14 11  2  0  0  0  0
 15 17  1  0  0  0  0
 16 15  2  0  0  0  0
 17 26  1  0  0  0  0
 17 29  1  0  0  0  0
 18 24  1  0  0  0  0
 19 18  1  0  0  0  0
 20 13  1  0  0  0  0
 21 22  1  0  0  0  0
 22 24  1  0  0  0  0
 22 25  1  0  0  0  0
 23 22  1  0  0  0  0
 23 36  2  0  0  0  0
 24 25  1  0  0  0  0
 26 27  1  0  0  0  0
 27 28  2  0  0  0  0
 27 30  1  0  0  0  0
 28 33  1  0  0  0  0
 29 28  1  0  0  0  0
 30 31  2  0  0  0  0
 31 32  1  0  0  0  0
 33 32  2  0  0  0  0
 33 34  1  0  0  0  0
 34 43  1  0  0  0  0
 35 23  1  0  0  0  0
 37 35  1  0  0  0  0
 37 40  2  0  0  0  0
 38 37  1  0  0  0  0
 38 42  1  0  0  0  0
 39 37  2  0  0  0  0
 41 38  1  0  0  0  0
 41 42  1  0  0  0  0
 43 44  1  0  0  0  0
 45 44  1  0  0  0  0
 46 45  1  0  0  0  0
 46 48  1  0  0  0  0
 46 49  1  0  0  0  0
 47 46  1  0  0  0  0
 51 13  1  0  0  0  0
 52  2  1  0  0  0  0
 52  6  1  0  0  0  0
 53 15  1  0  0  0  0
M  END
>  <InstanceId>
3SU4_SU3_A_1

>  <ChemCompId>
SU3

>  <PdbId>
3SU4

>  <ChainId>
A

>  <ResidueNumber>
1

>  <InsertionCode>


>  <Model>
1

>  <AltIds>


>  <MissingHeavyAtoms>
0

>  <ObservedFormula>
C38 N5 O9 S

>  <Name>
(5R,7S,10S)-10-tert-butyl-N-{(1R,2R)-1-[(cyclopropylsulfonyl)carbamoyl]-2-ethylcyclopropyl}-15,15-dimethyl-3,9,12-trioxo-6,7,9,10,11,12,14,15,16,17,18,19-dodecahydro-1H,5H-2,23:5,8-dimethano-4,13,2,8,11-benzodioxatriazacyclohenicosine-7(3H)-carboxamide

>  <SystematicName>


>  <Synonyms>
vaniprevir; MK-7009

>  <Type>
NON-POLYMER

>  <Formula>
C38 H55 N5 O9 S

>  <MolecularWeight>
757.936

>  <ModifiedDate>
2020-05-27

>  <Parent>


>  <OneLetterCode>


>  <SubcomponentList>


>  <AmbiguousFlag>
N

>  <InChI>
InChI=1S/C38H55N5O9S/c1-7-25-18-38(25,33(46)41-53(49,50)27-14-15-27)40-31(44)29-17-26-20-43(29)32(45)30(36(2,3)4)39-34(47)51-22-37(5,6)16-9-8-11-23-12-10-13-24-19-42(21-28(23)24)35(48)52-26/h10,12-13,25-27,29-30H,7-9,11,14-22H2,1-6H3,(H,39,47)(H,40,44)(H,41,46)/t25-,26-,29+,30-,38-/m1/s1

>  <InChIKey>
KUQWGLQLLVFLSM-ONAXAZCASA-N

>  <SMILES>
CC[C@@H]1C[C@@]1(C(=O)NS(=O)(=O)C2CC2)NC(=O)[C@@H]3C[C@@H]4CN3C(=O)[C@@H](NC(=O)OCC(CCCCc5cccc6c5CN(C6)C(=O)O4)(C)C)C(C)(C)C

$$$$
