6G98_ER5_A_302
  RCSB PDB08022004473D
Coordinates from PDB:6G98:A:302 Model:1 without hydrogens
 38 40  0  0  0  0            999 V2000
   17.2200  -24.1490  -52.7820   F 0  0  0  0  0  0  0  0  0  0  0  0
   18.1460  -23.4840  -53.4630   C 0  0  0  0  0  0  0  0  0  0  0  0
   19.4510  -23.2740  -52.8190   C 0  0  0  0  0  0  0  0  0  0  0  0
   19.8150  -23.9210  -51.3120   S 0  0  0  0  0  0  0  0  0  0  0  0
   20.7940  -25.3730  -51.7200   C 0  0  0  0  0  0  0  0  0  0  0  0
   20.1280  -26.5420  -52.4920   C 0  0  0  0  0  0  0  0  0  0  0  0
   19.2430  -27.3390  -51.5600   C 0  0  0  0  0  0  0  0  0  0  0  0
   19.8230  -28.1320  -50.5680   C 0  0  0  0  0  0  0  0  0  0  0  0
   19.0030  -28.8360  -49.6790   C 0  0  0  0  0  0  0  0  0  0  0  0
   17.6020  -28.7620  -49.7920   C 0  0  0  0  0  0  0  0  0  0  0  0
   16.7380  -29.4910  -48.8010   C 0  0  0  0  0  0  0  0  0  0  0  0
   15.5240  -29.2810  -48.7240   O 0  0  0  0  0  0  0  0  0  0  0  0
   17.3190  -30.2980  -47.9200   O 0  0  0  0  0  0  0  0  0  0  0  0
   17.0210  -27.9530  -50.7850   C 0  0  0  0  0  0  0  0  0  0  0  0
   17.8420  -27.2500  -51.6660   C 0  0  0  0  0  0  0  0  0  0  0  0
   20.5030  -22.5410  -53.5180   C 0  0  0  0  0  0  0  0  0  0  0  0
   21.6970  -22.3650  -52.9420   F 0  0  0  0  0  0  0  0  0  0  0  0
   20.2350  -21.9930  -54.8450   C 0  0  0  0  0  0  0  0  0  0  0  0
   21.2470  -21.3460  -55.4040   F 0  0  0  0  0  0  0  0  0  0  0  0
   17.8510  -22.9220  -54.7990   C 0  0  0  0  0  0  0  0  0  0  0  0
   18.9260  -22.1730  -55.5270   C 0  0  0  0  0  0  0  0  0  0  0  0
   18.7590  -21.5350  -57.0110   S 0  0  0  0  0  0  0  0  0  0  0  0
   17.4050  -21.5050  -57.4840   O 0  0  0  0  0  0  0  0  0  0  0  0
   19.3030  -20.0260  -56.9780   N 0  0  0  0  0  0  0  0  0  0  0  0
   19.5370  -22.3370  -57.9340   O 0  0  0  0  0  0  0  0  0  0  0  0
   16.6990  -23.2100  -55.4320   N 0  0  0  0  0  0  0  0  0  0  0  0
   16.0680  -24.5340  -55.3290   C 0  0  0  0  0  0  0  0  0  0  0  0
   14.5300  -24.4750  -55.3410   C 0  0  0  0  0  0  0  0  0  0  0  0
   13.6890  -24.8790  -56.5540   C 0  0  0  0  0  0  0  0  0  0  0  0
   13.0490  -26.2660  -56.4700   C 0  0  0  0  0  0  0  0  0  0  0  0
   13.9350  -27.4200  -56.9290   C 0  0  0  0  0  0  0  0  0  0  0  0
   14.2380  -27.3680  -58.4210   C 0  0  0  0  0  0  0  0  0  0  0  0
   15.2840  -28.4180  -58.7970   C 0  0  0  0  0  0  0  0  0  0  0  0
   16.7150  -27.8970  -58.7560   C 0  0  0  0  0  0  0  0  0  0  0  0
   17.4890  -28.3320  -57.5140   C 0  0  0  0  0  0  0  0  0  0  0  0
   18.3590  -27.2040  -56.9690   C 0  0  0  0  0  0  0  0  0  0  0  0
   17.6260  -26.4340  -55.8760   C 0  0  0  0  0  0  0  0  0  0  0  0
   16.7380  -25.3430  -56.4510   C 0  0  0  0  0  0  0  0  0  0  0  0
 33 34  1  0  0  0  0
 33 32  1  0  0  0  0
 34 35  1  0  0  0  0
 32 31  1  0  0  0  0
 25 22  2  0  0  0  0
 35 36  1  0  0  0  0
 23 22  2  0  0  0  0
 22 24  1  0  0  0  0
 22 21  1  0  0  0  0
 36 37  1  0  0  0  0
 31 30  1  0  0  0  0
 29 30  1  0  0  0  0
 29 28  1  0  0  0  0
 38 37  1  0  0  0  0
 38 27  1  0  0  0  0
 21 18  2  0  0  0  0
 21 20  1  0  0  0  0
 26 27  1  0  0  0  0
 26 20  1  0  0  0  0
 19 18  1  0  0  0  0
 28 27  1  0  0  0  0
 18 16  1  0  0  0  0
 20  2  2  0  0  0  0
 16 17  1  0  0  0  0
 16  3  2  0  0  0  0
  2  3  1  0  0  0  0
  2  1  1  0  0  0  0
  3  4  1  0  0  0  0
  6  5  1  0  0  0  0
  6  7  1  0  0  0  0
  5  4  1  0  0  0  0
 15  7  2  0  0  0  0
 15 14  1  0  0  0  0
  7  8  1  0  0  0  0
 14 10  2  0  0  0  0
  8  9  2  0  0  0  0
 10  9  1  0  0  0  0
 10 11  1  0  0  0  0
 11 12  2  0  0  0  0
 11 13  1  0  0  0  0
M  END
>  <InstanceId>
6G98_ER5_A_302

>  <ChemCompId>
ER5

>  <PdbId>
6G98

>  <ChainId>
A

>  <ResidueNumber>
302

>  <InsertionCode>


>  <Model>
1

>  <AltIds>


>  <MissingHeavyAtoms>
0

>  <ObservedFormula>
C27 N2 O4 S2 F3

>  <Name>
4-[2-[3-(cyclododecylamino)-2,5,6-tris(fluoranyl)-4-sulfamoyl-phenyl]sulfanylethyl]benzoic acid

>  <SystematicName>
4-[2-[3-(cyclododecylamino)-2,5,6-tris(fluoranyl)-4-sulfamoyl-phenyl]sulfanylethyl]benzoic acid

>  <Synonyms>


>  <Type>
NON-POLYMER

>  <Formula>
C27 H35 F3 N2 O4 S2

>  <MolecularWeight>
572.703

>  <ModifiedDate>
2018-06-29

>  <Parent>


>  <OneLetterCode>


>  <SubcomponentList>


>  <AmbiguousFlag>
N

>  <InChI>
InChI=1S/C27H35F3N2O4S2/c28-21-22(29)26(38(31,35)36)24(32-20-10-8-6-4-2-1-3-5-7-9-11-20)23(30)25(21)37-17-16-18-12-14-19(15-13-18)27(33)34/h12-15,20,32H,1-11,16-17H2,(H,33,34)(H2,31,35,36)

>  <InChIKey>
BMKRNBDPIOXDOC-UHFFFAOYSA-N

>  <SMILES>
c1cc(ccc1CCSc2c(c(c(c(c2F)F)S(=O)(=O)N)NC3CCCCCCCCCCC3)F)C(=O)O

$$$$
